L09.****
  PyMOL2.4          3D                             0

 30 30  0  0  0  0  0  0  0  0999 V2000
   11.9956   -5.2873    0.1051 C   0  0  0  1  0  0  0  0  0  0  0  0
   12.0038   -6.2839   -0.2844 H   0  0  0  1  0  0  0  0  0  0  0  0
   12.2918   -5.4918    1.4890 O   0  0  0  1  0  0  0  0  0  0  0  0
   12.9015   -6.2276    1.5809 H   0  0  0  1  0  0  0  0  0  0  0  0
   11.2348   -4.9670    0.1242 C   0  0  0  1  0  0  0  0  0  0  0  0
   10.7954   -5.1076    1.0896 H   0  0  0  1  0  0  0  0  0  0  0  0
   10.4766   -5.8744   -0.6718 O   0  0  0  1  0  0  0  0  0  0  0  0
    9.5407   -5.6883   -0.5665 H   0  0  0  1  0  0  0  0  0  0  0  0
   11.1045   -4.1970   -0.1417 C   0  0  0  1  0  0  0  0  0  0  0  0
   10.3218   -4.2055   -0.8713 H   0  0  0  1  0  0  0  0  0  0  0  0
   12.4946   -4.0667   -0.4458 C   0  0  0  1  0  0  0  0  0  0  0  0
   12.9846   -3.8775   -1.3780 H   0  0  0  1  0  0  0  0  0  0  0  0
   13.2072   -3.2650    0.4450 O   0  0  0  1  0  0  0  0  0  0  0  0
   14.1229   -3.2080    0.1626 H   0  0  0  1  0  0  0  0  0  0  0  0
   13.2005   -5.5676   -1.3135 N   0  0  0  1  0  0  0  0  0  0  0  0
   12.5839   -5.8970   -2.0003 H   0  0  0  1  0  0  0  0  0  0  0  0
   11.7349   -3.7472   -0.4266 O   0  0  0  1  0  0  0  0  0  0  0  0
   12.6250   -4.8367   -0.1799 C   0  0  0  1  0  0  0  0  0  0  0  0
   13.4385   -4.8557    0.5148 H   0  0  0  1  0  0  0  0  0  0  0  0
   10.4542   -3.3831    0.9430 C   0  0  0  1  0  0  0  0  0  0  0  0
   11.1574   -3.2461    1.7378 H   0  0  0  1  0  0  0  0  0  0  0  0
    9.6017   -3.9167    1.3084 H   0  0  0  1  0  0  0  0  0  0  0  0
   10.0309   -2.1073    0.4841 O   0  0  0  1  0  0  0  0  0  0  0  0
    9.0744   -2.0475    0.5407 H   0  0  0  1  0  0  0  0  0  0  0  0
   14.5022   -5.8183   -1.4805 C   0  0  0  1  0  0  0  0  0  0  0  0
   15.3770   -5.4575   -0.6942 O   0  0  0  1  0  0  0  0  0  0  0  0
   14.9299   -6.5934   -2.7115 C   0  0  0  1  0  0  0  0  0  0  0  0
   15.9778   -6.8023   -2.6558 H   0  0  0  1  0  0  0  0  0  0  0  0
   14.7285   -6.0118   -3.5868 H   0  0  0  1  0  0  0  0  0  0  0  0
   14.3852   -7.5131   -2.7607 H   0  0  0  1  0  0  0  0  0  0  0  0
  1  2  1  0  0  0  0
  1  3  1  0  0  0  0
  1  5  1  0  0  0  0
  1 18  1  0  0  0  0
  3  4  1  0  0  0  0
  5  6  1  0  0  0  0
  5  7  1  0  0  0  0
  5  9  1  0  0  0  0
  7  8  1  0  0  0  0
  9 10  1  0  0  0  0
  9 17  1  0  0  0  0
  9 20  1  0  0  0  0
 11 12  1  0  0  0  0
 11 13  1  0  0  0  0
 11 17  1  0  0  0  0
 11 18  1  0  0  0  0
 13 14  1  0  0  0  0
 15 16  1  0  0  0  0
 15 18  1  0  0  0  0
 15 25  1  0  0  0  0
 18 19  1  0  0  0  0
 20 21  1  0  0  0  0
 20 22  1  0  0  0  0
 20 23  1  0  0  0  0
 23 24  1  0  0  0  0
 25 26  2  0  0  0  0
 25 27  1  0  0  0  0
 27 28  1  0  0  0  0
 27 29  1  0  0  0  0
 27 30  1  0  0  0  0
M  END
> <ConfClashScore>
0.0395391 

> <ConfOneFourInteractionScore>
-0.95717 

> <ConfScore>
4.42503 

> <ConfScorePBest>
0.0150985 

> <ConfTolerance>
0.25 

$$$$
L09.****
  PyMOL2.4          3D                             0

 30 30  0  0  0  0  0  0  0  0999 V2000
   12.1023   -5.3017   -0.1391 C   0  0  0  1  0  0  0  0  0  0  0  0
   12.1125   -6.1676   -0.7677 H   0  0  0  1  0  0  0  0  0  0  0  0
   12.2934   -5.8841    1.1528 O   0  0  0  1  0  0  0  0  0  0  0  0
   12.0231   -6.8051    1.1323 H   0  0  0  1  0  0  0  0  0  0  0  0
   11.3474   -4.9675   -0.1251 C   0  0  0  1  0  0  0  0  0  0  0  0
   10.7211   -5.5103   -0.8019 H   0  0  0  1  0  0  0  0  0  0  0  0
   10.7313   -5.2770    1.1096 O   0  0  0  1  0  0  0  0  0  0  0  0
    9.7941   -5.0749    1.0596 H   0  0  0  1  0  0  0  0  0  0  0  0
   11.2507   -4.1605   -0.2662 C   0  0  0  1  0  0  0  0  0  0  0  0
   10.7172   -3.7355    0.5581 H   0  0  0  1  0  0  0  0  0  0  0  0
   12.6627   -4.0209   -0.4356 C   0  0  0  1  0  0  0  0  0  0  0  0
   13.2291   -3.6929   -1.2821 H   0  0  0  1  0  0  0  0  0  0  0  0
   13.3110   -3.4021    0.6271 O   0  0  0  1  0  0  0  0  0  0  0  0
   12.7304   -3.3866    1.3915 H   0  0  0  1  0  0  0  0  0  0  0  0
   13.4525   -5.4365   -1.4201 N   0  0  0  1  0  0  0  0  0  0  0  0
   12.9573   -5.5949   -2.2508 H   0  0  0  1  0  0  0  0  0  0  0  0
   11.9089   -3.6876   -0.4215 O   0  0  0  1  0  0  0  0  0  0  0  0
   12.7594   -4.8280   -0.2944 C   0  0  0  1  0  0  0  0  0  0  0  0
   13.4826   -4.9647    0.4823 H   0  0  0  1  0  0  0  0  0  0  0  0
   10.2994   -3.8345   -1.3846 C   0  0  0  1  0  0  0  0  0  0  0  0
   10.2077   -2.7710   -1.4584 H   0  0  0  1  0  0  0  0  0  0  0  0
    9.3443   -4.2605   -1.1580 H   0  0  0  1  0  0  0  0  0  0  0  0
   10.7393   -4.3420   -2.6361 O   0  0  0  1  0  0  0  0  0  0  0  0
   10.0004   -4.3695   -3.2484 H   0  0  0  1  0  0  0  0  0  0  0  0
   14.7405   -5.7866   -1.3605 C   0  0  0  1  0  0  0  0  0  0  0  0
   15.4124   -5.6923   -0.3368 O   0  0  0  1  0  0  0  0  0  0  0  0
   15.3393   -6.3167   -2.6488 C   0  0  0  1  0  0  0  0  0  0  0  0
   14.6200   -6.9287   -3.1517 H   0  0  0  1  0  0  0  0  0  0  0  0
   16.2084   -6.8993   -2.4246 H   0  0  0  1  0  0  0  0  0  0  0  0
   15.6121   -5.4962   -3.2790 H   0  0  0  1  0  0  0  0  0  0  0  0
  1  2  1  0  0  0  0
  1  3  1  0  0  0  0
  1  5  1  0  0  0  0
  1 18  1  0  0  0  0
  3  4  1  0  0  0  0
  5  6  1  0  0  0  0
  5  7  1  0  0  0  0
  5  9  1  0  0  0  0
  7  8  1  0  0  0  0
  9 10  1  0  0  0  0
  9 17  1  0  0  0  0
  9 20  1  0  0  0  0
 11 12  1  0  0  0  0
 11 13  1  0  0  0  0
 11 17  1  0  0  0  0
 11 18  1  0  0  0  0
 13 14  1  0  0  0  0
 15 16  1  0  0  0  0
 15 18  1  0  0  0  0
 15 25  1  0  0  0  0
 18 19  1  0  0  0  0
 20 21  1  0  0  0  0
 20 22  1  0  0  0  0
 20 23  1  0  0  0  0
 23 24  1  0  0  0  0
 25 26  2  0  0  0  0
 25 27  1  0  0  0  0
 27 28  1  0  0  0  0
 27 29  1  0  0  0  0
 27 30  1  0  0  0  0
M  END
> <ConfClashScore>
0.0395391 

> <ConfOneFourInteractionScore>
-0.968695 

> <ConfScore>
4.4327 

> <ConfScorePBest>
0.0149955 

> <ConfTolerance>
0.25 

$$$$
L09.****
  PyMOL2.4          3D                             0

 30 30  0  0  0  0  0  0  0  0999 V2000
   12.0263   -5.2480    0.0931 C   0  0  0  1  0  0  0  0  0  0  0  0
   11.9434   -6.2416   -0.2951 H   0  0  0  1  0  0  0  0  0  0  0  0
   12.2152   -5.4910    1.4895 O   0  0  0  1  0  0  0  0  0  0  0  0
   11.9232   -6.3803    1.7024 H   0  0  0  1  0  0  0  0  0  0  0  0
   11.3007   -4.8555    0.0585 C   0  0  0  1  0  0  0  0  0  0  0  0
   10.7961   -4.9072    1.0006 H   0  0  0  1  0  0  0  0  0  0  0  0
   10.4600   -5.6566   -0.7682 O   0  0  0  1  0  0  0  0  0  0  0  0
   10.1308   -6.4032   -0.2625 H   0  0  0  1  0  0  0  0  0  0  0  0
   11.2582   -4.0935   -0.2549 C   0  0  0  1  0  0  0  0  0  0  0  0
   10.5461   -4.1083   -1.0534 H   0  0  0  1  0  0  0  0  0  0  0  0
   12.6660   -4.1155   -0.4993 C   0  0  0  1  0  0  0  0  0  0  0  0
   13.1650   -4.0687   -1.4446 H   0  0  0  1  0  0  0  0  0  0  0  0
   13.5247   -3.3641    0.3200 O   0  0  0  1  0  0  0  0  0  0  0  0
   13.0084   -2.7511    0.8484 H   0  0  0  1  0  0  0  0  0  0  0  0
   13.2520   -5.7194   -1.2411 N   0  0  0  1  0  0  0  0  0  0  0  0
   12.9305   -5.5947   -2.1585 H   0  0  0  1  0  0  0  0  0  0  0  0
   11.9413   -3.7240   -0.5337 O   0  0  0  1  0  0  0  0  0  0  0  0
   12.7085   -4.8775   -0.1859 C   0  0  0  1  0  0  0  0  0  0  0  0
   13.4856   -4.9328    0.5476 H   0  0  0  1  0  0  0  0  0  0  0  0
   10.5775   -3.1996    0.6536 C   0  0  0  1  0  0  0  0  0  0  0  0
   11.1867   -3.1018    1.5278 H   0  0  0  1  0  0  0  0  0  0  0  0
    9.6455   -3.6545    0.9168 H   0  0  0  1  0  0  0  0  0  0  0  0
   10.3019   -1.9154    0.1869 O   0  0  0  1  0  0  0  0  0  0  0  0
    9.4076   -1.8858   -0.1608 H   0  0  0  1  0  0  0  0  0  0  0  0
   14.1742   -6.6564   -1.0029 C   0  0  0  1  0  0  0  0  0  0  0  0
   14.7527   -6.7665    0.0749 O   0  0  0  1  0  0  0  0  0  0  0  0
   14.4738   -7.5941   -2.1562 C   0  0  0  1  0  0  0  0  0  0  0  0
   15.4909   -7.9208   -2.0959 H   0  0  0  1  0  0  0  0  0  0  0  0
   14.3186   -7.0810   -3.0822 H   0  0  0  1  0  0  0  0  0  0  0  0
   13.8233   -8.4421   -2.1043 H   0  0  0  1  0  0  0  0  0  0  0  0
  1  2  1  0  0  0  0
  1  3  1  0  0  0  0
  1  5  1  0  0  0  0
  1 18  1  0  0  0  0
  3  4  1  0  0  0  0
  5  6  1  0  0  0  0
  5  7  1  0  0  0  0
  5  9  1  0  0  0  0
  7  8  1  0  0  0  0
  9 10  1  0  0  0  0
  9 17  1  0  0  0  0
  9 20  1  0  0  0  0
 11 12  1  0  0  0  0
 11 13  1  0  0  0  0
 11 17  1  0  0  0  0
 11 18  1  0  0  0  0
 13 14  1  0  0  0  0
 15 16  1  0  0  0  0
 15 18  1  0  0  0  0
 15 25  1  0  0  0  0
 18 19  1  0  0  0  0
 20 21  1  0  0  0  0
 20 22  1  0  0  0  0
 20 23  1  0  0  0  0
 23 24  1  0  0  0  0
 25 26  2  0  0  0  0
 25 27  1  0  0  0  0
 27 28  1  0  0  0  0
 27 29  1  0  0  0  0
 27 30  1  0  0  0  0
M  END
> <ConfClashScore>
0.039564 

> <ConfOneFourInteractionScore>
-0.967989 

> <ConfScore>
4.45836 

> <ConfScorePBest>
0.0148925 

> <ConfTolerance>
0.25 

$$$$
L09.****
  PyMOL2.4          3D                             0

 30 30  0  0  0  0  0  0  0  0999 V2000
   12.0961   -5.3310    0.1175 C   0  0  0  1  0  0  0  0  0  0  0  0
   12.1130   -6.3227   -0.2839 H   0  0  0  1  0  0  0  0  0  0  0  0
   12.2596   -5.5668    1.5201 O   0  0  0  1  0  0  0  0  0  0  0  0
   11.8859   -6.4215    1.7470 H   0  0  0  1  0  0  0  0  0  0  0  0
   11.3391   -5.0025    0.0872 C   0  0  0  1  0  0  0  0  0  0  0  0
   10.8172   -5.1519    1.0092 H   0  0  0  1  0  0  0  0  0  0  0  0
   10.5762   -5.7962   -0.8183 O   0  0  0  1  0  0  0  0  0  0  0  0
    9.6406   -5.6749   -0.6407 H   0  0  0  1  0  0  0  0  0  0  0  0
   11.2339   -4.2336   -0.1928 C   0  0  0  1  0  0  0  0  0  0  0  0
   10.5016   -4.2443   -0.9729 H   0  0  0  1  0  0  0  0  0  0  0  0
   12.6414   -4.1208   -0.4121 C   0  0  0  1  0  0  0  0  0  0  0  0
   13.1892   -3.9458   -1.3144 H   0  0  0  1  0  0  0  0  0  0  0  0
   13.3050   -3.3209    0.5111 O   0  0  0  1  0  0  0  0  0  0  0  0
   13.2737   -2.4056    0.2232 H   0  0  0  1  0  0  0  0  0  0  0  0
   13.3351   -5.6761   -1.2203 N   0  0  0  1  0  0  0  0  0  0  0  0
   12.7603   -5.9648   -1.9596 H   0  0  0  1  0  0  0  0  0  0  0  0
   11.8856   -3.7932   -0.4423 O   0  0  0  1  0  0  0  0  0  0  0  0
   12.7467   -4.8897   -0.1322 C   0  0  0  1  0  0  0  0  0  0  0  0
   13.5273   -4.9215    0.5989 H   0  0  0  1  0  0  0  0  0  0  0  0
   10.5620   -3.3191    0.7906 C   0  0  0  1  0  0  0  0  0  0  0  0
    9.6930   -3.8007    1.1878 H   0  0  0  1  0  0  0  0  0  0  0  0
   10.2746   -2.4147    0.2963 H   0  0  0  1  0  0  0  0  0  0  0  0
   11.4589   -3.0137    1.8504 O   0  0  0  1  0  0  0  0  0  0  0  0
   11.0052   -2.4868    2.5123 H   0  0  0  1  0  0  0  0  0  0  0  0
   14.6279   -6.0129   -1.2393 C   0  0  0  1  0  0  0  0  0  0  0  0
   15.4000   -5.7586   -0.3158 O   0  0  0  1  0  0  0  0  0  0  0  0
   15.1012   -6.7391   -2.4834 C   0  0  0  1  0  0  0  0  0  0  0  0
   15.7512   -6.1004   -3.0441 H   0  0  0  1  0  0  0  0  0  0  0  0
   14.2566   -7.0043   -3.0843 H   0  0  0  1  0  0  0  0  0  0  0  0
   15.6299   -7.6250   -2.1995 H   0  0  0  1  0  0  0  0  0  0  0  0
  1  2  1  0  0  0  0
  1  3  1  0  0  0  0
  1  5  1  0  0  0  0
  1 18  1  0  0  0  0
  3  4  1  0  0  0  0
  5  6  1  0  0  0  0
  5  7  1  0  0  0  0
  5  9  1  0  0  0  0
  7  8  1  0  0  0  0
  9 10  1  0  0  0  0
  9 17  1  0  0  0  0
  9 20  1  0  0  0  0
 11 12  1  0  0  0  0
 11 13  1  0  0  0  0
 11 17  1  0  0  0  0
 11 18  1  0  0  0  0
 13 14  1  0  0  0  0
 15 16  1  0  0  0  0
 15 18  1  0  0  0  0
 15 25  1  0  0  0  0
 18 19  1  0  0  0  0
 20 21  1  0  0  0  0
 20 22  1  0  0  0  0
 20 23  1  0  0  0  0
 23 24  1  0  0  0  0
 25 26  2  0  0  0  0
 25 27  1  0  0  0  0
 27 28  1  0  0  0  0
 27 29  1  0  0  0  0
 27 30  1  0  0  0  0
M  END
> <ConfClashScore>
0.0395391 

> <ConfOneFourInteractionScore>
-0.972815 

> <ConfScore>
4.46333 

> <ConfScorePBest>
0.0147895 

> <ConfTolerance>
0.25 

$$$$
L09.****
  PyMOL2.4          3D                             0

 30 30  0  0  0  0  0  0  0  0999 V2000
   12.0305   -5.3501    0.2701 C   0  0  0  1  0  0  0  0  0  0  0  0
   11.9572   -5.8724    1.2010 H   0  0  0  1  0  0  0  0  0  0  0  0
   12.3168   -6.4190   -0.6103 O   0  0  0  1  0  0  0  0  0  0  0  0
   12.4847   -6.0734   -1.4900 H   0  0  0  1  0  0  0  0  0  0  0  0
   11.2886   -5.0397    0.0829 C   0  0  0  1  0  0  0  0  0  0  0  0
   10.7816   -5.6401   -0.6433 H   0  0  0  1  0  0  0  0  0  0  0  0
   10.5262   -5.2806    1.2630 O   0  0  0  1  0  0  0  0  0  0  0  0
    9.5905   -5.2141    1.0591 H   0  0  0  1  0  0  0  0  0  0  0  0
   11.2065   -4.2345   -0.0771 C   0  0  0  1  0  0  0  0  0  0  0  0
   10.4456   -3.8314    0.5580 H   0  0  0  1  0  0  0  0  0  0  0  0
   12.6072   -4.0493    0.1370 C   0  0  0  1  0  0  0  0  0  0  0  0
   13.1552   -3.4327    0.8185 H   0  0  0  1  0  0  0  0  0  0  0  0
   13.3315   -3.9208   -1.0640 O   0  0  0  1  0  0  0  0  0  0  0  0
   13.2280   -3.0301   -1.4069 H   0  0  0  1  0  0  0  0  0  0  0  0
   13.3474   -5.0127    1.6011 N   0  0  0  1  0  0  0  0  0  0  0  0
   13.0383   -4.4694    2.3559 H   0  0  0  1  0  0  0  0  0  0  0  0
   11.8664   -3.7397   -0.0499 O   0  0  0  1  0  0  0  0  0  0  0  0
   12.6892   -4.8544    0.2970 C   0  0  0  1  0  0  0  0  0  0  0  0
   13.4435   -5.2548   -0.3478 H   0  0  0  1  0  0  0  0  0  0  0  0
   10.6323   -3.8881   -1.4233 C   0  0  0  1  0  0  0  0  0  0  0  0
    9.7333   -4.4500   -1.5679 H   0  0  0  1  0  0  0  0  0  0  0  0
   11.3435   -4.1517   -2.1781 H   0  0  0  1  0  0  0  0  0  0  0  0
   10.3302   -2.5056   -1.5447 O   0  0  0  1  0  0  0  0  0  0  0  0
   10.9395   -1.9959   -1.0058 H   0  0  0  1  0  0  0  0  0  0  0  0
   14.3610   -5.8788    1.7953 C   0  0  0  1  0  0  0  0  0  0  0  0
   14.7978   -6.6485    0.9408 O   0  0  0  1  0  0  0  0  0  0  0  0
   14.9430   -5.8318    3.1947 C   0  0  0  1  0  0  0  0  0  0  0  0
   14.2535   -6.2737    3.8833 H   0  0  0  1  0  0  0  0  0  0  0  0
   15.1214   -4.8140    3.4726 H   0  0  0  1  0  0  0  0  0  0  0  0
   15.8649   -6.3746    3.2157 H   0  0  0  1  0  0  0  0  0  0  0  0
  1  2  1  0  0  0  0
  1  3  1  0  0  0  0
  1  5  1  0  0  0  0
  1 18  1  0  0  0  0
  3  4  1  0  0  0  0
  5  6  1  0  0  0  0
  5  7  1  0  0  0  0
  5  9  1  0  0  0  0
  7  8  1  0  0  0  0
  9 10  1  0  0  0  0
  9 17  1  0  0  0  0
  9 20  1  0  0  0  0
 11 12  1  0  0  0  0
 11 13  1  0  0  0  0
 11 17  1  0  0  0  0
 11 18  1  0  0  0  0
 13 14  1  0  0  0  0
 15 16  1  0  0  0  0
 15 18  1  0  0  0  0
 15 25  1  0  0  0  0
 18 19  1  0  0  0  0
 20 21  1  0  0  0  0
 20 22  1  0  0  0  0
 20 23  1  0  0  0  0
 23 24  1  0  0  0  0
 25 26  2  0  0  0  0
 25 27  1  0  0  0  0
 27 28  1  0  0  0  0
 27 29  1  0  0  0  0
 27 30  1  0  0  0  0
M  END
> <ConfClashScore>
0.0395391 

> <ConfOneFourInteractionScore>
-0.968695 

> <ConfScore>
4.47522 

> <ConfScorePBest>
0.0146865 

> <ConfTolerance>
0.3614 

$$$$
L09.****
  PyMOL2.4          3D                             0

 30 30  0  0  0  0  0  0  0  0999 V2000
   12.0068   -5.1749    0.3716 C   0  0  0  1  0  0  0  0  0  0  0  0
   12.0726   -5.7004    1.3013 H   0  0  0  1  0  0  0  0  0  0  0  0
   12.0553   -6.2380   -0.5835 O   0  0  0  1  0  0  0  0  0  0  0  0
   12.1208   -7.0786   -0.1243 H   0  0  0  1  0  0  0  0  0  0  0  0
   11.2559   -4.8513    0.2569 C   0  0  0  1  0  0  0  0  0  0  0  0
   10.6187   -5.0507    1.0930 H   0  0  0  1  0  0  0  0  0  0  0  0
   10.6309   -5.6045   -0.7794 O   0  0  0  1  0  0  0  0  0  0  0  0
   10.0644   -6.2752   -0.3911 H   0  0  0  1  0  0  0  0  0  0  0  0
   11.1776   -4.0702    0.0032 C   0  0  0  1  0  0  0  0  0  0  0  0
   10.5497   -4.0435   -0.8628 H   0  0  0  1  0  0  0  0  0  0  0  0
   12.6000   -3.9356   -0.0214 C   0  0  0  1  0  0  0  0  0  0  0  0
   13.2539   -3.2702    0.5027 H   0  0  0  1  0  0  0  0  0  0  0  0
   13.2009   -4.0207   -1.3032 O   0  0  0  1  0  0  0  0  0  0  0  0
   13.7137   -3.2265   -1.4701 H   0  0  0  1  0  0  0  0  0  0  0  0
   13.3828   -4.7247    1.5057 N   0  0  0  1  0  0  0  0  0  0  0  0
   13.0945   -4.1068    2.2096 H   0  0  0  1  0  0  0  0  0  0  0  0
   11.8502   -3.6127   -0.1358 O   0  0  0  1  0  0  0  0  0  0  0  0
   12.6783   -4.7167    0.2323 C   0  0  0  1  0  0  0  0  0  0  0  0
   13.3670   -5.2448   -0.3936 H   0  0  0  1  0  0  0  0  0  0  0  0
   10.3296   -3.2990    0.9737 C   0  0  0  1  0  0  0  0  0  0  0  0
    9.4230   -3.8321    1.1704 H   0  0  0  1  0  0  0  0  0  0  0  0
   10.0971   -2.3356    0.5704 H   0  0  0  1  0  0  0  0  0  0  0  0
   11.0773   -3.1551    2.1728 O   0  0  0  1  0  0  0  0  0  0  0  0
   10.5503   -2.6876    2.8249 H   0  0  0  1  0  0  0  0  0  0  0  0
   14.4090   -5.5451    1.7484 C   0  0  0  1  0  0  0  0  0  0  0  0
   14.8698   -6.2993    0.9074 O   0  0  0  1  0  0  0  0  0  0  0  0
   14.9808   -5.4875    3.1516 C   0  0  0  1  0  0  0  0  0  0  0  0
   15.2068   -4.4725    3.4038 H   0  0  0  1  0  0  0  0  0  0  0  0
   15.8749   -6.0735    3.1965 H   0  0  0  1  0  0  0  0  0  0  0  0
   14.2641   -5.8758    3.8448 H   0  0  0  1  0  0  0  0  0  0  0  0
  1  2  1  0  0  0  0
  1  3  1  0  0  0  0
  1  5  1  0  0  0  0
  1 18  1  0  0  0  0
  3  4  1  0  0  0  0
  5  6  1  0  0  0  0
  5  7  1  0  0  0  0
  5  9  1  0  0  0  0
  7  8  1  0  0  0  0
  9 10  1  0  0  0  0
  9 17  1  0  0  0  0
  9 20  1  0  0  0  0
 11 12  1  0  0  0  0
 11 13  1  0  0  0  0
 11 17  1  0  0  0  0
 11 18  1  0  0  0  0
 13 14  1  0  0  0  0
 15 16  1  0  0  0  0
 15 18  1  0  0  0  0
 15 25  1  0  0  0  0
 18 19  1  0  0  0  0
 20 21  1  0  0  0  0
 20 22  1  0  0  0  0
 20 23  1  0  0  0  0
 23 24  1  0  0  0  0
 25 26  2  0  0  0  0
 25 27  1  0  0  0  0
 27 28  1  0  0  0  0
 27 29  1  0  0  0  0
 27 30  1  0  0  0  0
M  END
> <ConfClashScore>
0.0395391 

> <ConfOneFourInteractionScore>
-0.972815 

> <ConfScore>
4.48095 

> <ConfScorePBest>
0.0145835 

> <ConfTolerance>
0.25 

$$$$
L09.****
  PyMOL2.4          3D                             0

 30 30  0  0  0  0  0  0  0  0999 V2000
   12.0941   -5.1720    0.3753 C   0  0  0  1  0  0  0  0  0  0  0  0
   12.1715   -5.7301    1.2849 H   0  0  0  1  0  0  0  0  0  0  0  0
   12.2252   -6.1991   -0.6109 O   0  0  0  1  0  0  0  0  0  0  0  0
   12.1972   -7.0586   -0.1841 H   0  0  0  1  0  0  0  0  0  0  0  0
   11.3315   -4.8698    0.2808 C   0  0  0  1  0  0  0  0  0  0  0  0
   10.6847   -5.1754    1.0765 H   0  0  0  1  0  0  0  0  0  0  0  0
   10.7789   -5.5544   -0.8407 O   0  0  0  1  0  0  0  0  0  0  0  0
    9.8205   -5.5186   -0.7976 H   0  0  0  1  0  0  0  0  0  0  0  0
   11.2236   -4.0747    0.0890 C   0  0  0  1  0  0  0  0  0  0  0  0
   10.6209   -4.0169   -0.7933 H   0  0  0  1  0  0  0  0  0  0  0  0
   12.6397   -3.8832    0.0860 C   0  0  0  1  0  0  0  0  0  0  0  0
   13.2530   -3.2411    0.6830 H   0  0  0  1  0  0  0  0  0  0  0  0
   13.1998   -3.7414   -1.1944 O   0  0  0  1  0  0  0  0  0  0  0  0
   12.8237   -4.3996   -1.7834 H   0  0  0  1  0  0  0  0  0  0  0  0
   13.4464   -4.7598    1.5526 N   0  0  0  1  0  0  0  0  0  0  0  0
   13.0185   -4.3571    2.3369 H   0  0  0  1  0  0  0  0  0  0  0  0
   11.8782   -3.5818   -0.0083 O   0  0  0  1  0  0  0  0  0  0  0  0
   12.7476   -4.6783    0.2778 C   0  0  0  1  0  0  0  0  0  0  0  0
   13.4595   -5.1278   -0.3825 H   0  0  0  1  0  0  0  0  0  0  0  0
   10.3330   -3.3553    1.0643 C   0  0  0  1  0  0  0  0  0  0  0  0
   10.8172   -3.3315    2.0182 H   0  0  0  1  0  0  0  0  0  0  0  0
    9.4100   -3.8904    1.1456 H   0  0  0  1  0  0  0  0  0  0  0  0
   10.0531   -2.0223    0.6619 O   0  0  0  1  0  0  0  0  0  0  0  0
    9.2353   -1.7292    1.0704 H   0  0  0  1  0  0  0  0  0  0  0  0
   14.6314   -5.3473    1.7208 C   0  0  0  1  0  0  0  0  0  0  0  0
   15.2186   -5.9390    0.8187 O   0  0  0  1  0  0  0  0  0  0  0  0
   15.2265   -5.2439    3.1116 C   0  0  0  1  0  0  0  0  0  0  0  0
   16.2223   -4.8581    3.0463 H   0  0  0  1  0  0  0  0  0  0  0  0
   15.2489   -6.2140    3.5627 H   0  0  0  1  0  0  0  0  0  0  0  0
   14.6280   -4.5868    3.7073 H   0  0  0  1  0  0  0  0  0  0  0  0
  1  2  1  0  0  0  0
  1  3  1  0  0  0  0
  1  5  1  0  0  0  0
  1 18  1  0  0  0  0
  3  4  1  0  0  0  0
  5  6  1  0  0  0  0
  5  7  1  0  0  0  0
  5  9  1  0  0  0  0
  7  8  1  0  0  0  0
  9 10  1  0  0  0  0
  9 17  1  0  0  0  0
  9 20  1  0  0  0  0
 11 12  1  0  0  0  0
 11 13  1  0  0  0  0
 11 17  1  0  0  0  0
 11 18  1  0  0  0  0
 13 14  1  0  0  0  0
 15 16  1  0  0  0  0
 15 18  1  0  0  0  0
 15 25  1  0  0  0  0
 18 19  1  0  0  0  0
 20 21  1  0  0  0  0
 20 22  1  0  0  0  0
 20 23  1  0  0  0  0
 23 24  1  0  0  0  0
 25 26  2  0  0  0  0
 25 27  1  0  0  0  0
 27 28  1  0  0  0  0
 27 29  1  0  0  0  0
 27 30  1  0  0  0  0
M  END
> <ConfClashScore>
0.0395391 

> <ConfOneFourInteractionScore>
-0.968695 

> <ConfScore>
4.48472 

> <ConfScorePBest>
0.0144805 

> <ConfTolerance>
0.25 

$$$$
L09.****
  PyMOL2.4          3D                             0

 30 30  0  0  0  0  0  0  0  0999 V2000
   11.9879   -5.3275   -0.1440 C   0  0  0  1  0  0  0  0  0  0  0  0
   11.9782   -6.1594   -0.8169 H   0  0  0  1  0  0  0  0  0  0  0  0
   12.1639   -5.9702    1.1212 O   0  0  0  1  0  0  0  0  0  0  0  0
   12.3064   -6.9099    0.9862 H   0  0  0  1  0  0  0  0  0  0  0  0
   11.2527   -4.9521   -0.1243 C   0  0  0  1  0  0  0  0  0  0  0  0
   10.5468   -5.4393   -0.7640 H   0  0  0  1  0  0  0  0  0  0  0  0
   10.7202   -5.2176    1.1710 O   0  0  0  1  0  0  0  0  0  0  0  0
    9.8930   -5.6972    1.0854 H   0  0  0  1  0  0  0  0  0  0  0  0
   11.2066   -4.1313   -0.1930 C   0  0  0  1  0  0  0  0  0  0  0  0
   10.6658   -3.7523    0.6490 H   0  0  0  1  0  0  0  0  0  0  0  0
   12.6297   -4.0603   -0.3010 C   0  0  0  1  0  0  0  0  0  0  0  0
   13.2139   -3.7128   -1.1274 H   0  0  0  1  0  0  0  0  0  0  0  0
   13.2711   -3.4710    0.7815 O   0  0  0  1  0  0  0  0  0  0  0  0
   13.4852   -2.5594    0.5697 H   0  0  0  1  0  0  0  0  0  0  0  0
   13.3362   -5.4171   -1.4255 N   0  0  0  1  0  0  0  0  0  0  0  0
   12.9456   -5.2637   -2.3111 H   0  0  0  1  0  0  0  0  0  0  0  0
   11.8956   -3.6858   -0.2813 O   0  0  0  1  0  0  0  0  0  0  0  0
   12.6758   -4.8812   -0.2323 C   0  0  0  1  0  0  0  0  0  0  0  0
   13.3811   -5.1441    0.5281 H   0  0  0  1  0  0  0  0  0  0  0  0
   10.3190   -3.6496   -1.3075 C   0  0  0  1  0  0  0  0  0  0  0  0
    9.4543   -4.2781   -1.3538 H   0  0  0  1  0  0  0  0  0  0  0  0
   10.8585   -3.7159   -2.2291 H   0  0  0  1  0  0  0  0  0  0  0  0
    9.8966   -2.3062   -1.1224 O   0  0  0  1  0  0  0  0  0  0  0  0
    9.8710   -1.8584   -1.9712 H   0  0  0  1  0  0  0  0  0  0  0  0
   14.5127   -6.1408   -1.3042 C   0  0  0  1  0  0  0  0  0  0  0  0
   15.0596   -6.1868   -0.2146 O   0  0  0  1  0  0  0  0  0  0  0  0
   15.0689   -6.8388   -2.5134 C   0  0  0  1  0  0  0  0  0  0  0  0
   14.7889   -7.8713   -2.4901 H   0  0  0  1  0  0  0  0  0  0  0  0
   16.1359   -6.7587   -2.5119 H   0  0  0  1  0  0  0  0  0  0  0  0
   14.6778   -6.3834   -3.3991 H   0  0  0  1  0  0  0  0  0  0  0  0
  1  2  1  0  0  0  0
  1  3  1  0  0  0  0
  1  5  1  0  0  0  0
  1 18  1  0  0  0  0
  3  4  1  0  0  0  0
  5  6  1  0  0  0  0
  5  7  1  0  0  0  0
  5  9  1  0  0  0  0
  7  8  1  0  0  0  0
  9 10  1  0  0  0  0
  9 17  1  0  0  0  0
  9 20  1  0  0  0  0
 11 12  1  0  0  0  0
 11 13  1  0  0  0  0
 11 17  1  0  0  0  0
 11 18  1  0  0  0  0
 13 14  1  0  0  0  0
 15 16  1  0  0  0  0
 15 18  1  0  0  0  0
 15 25  1  0  0  0  0
 18 19  1  0  0  0  0
 20 21  1  0  0  0  0
 20 22  1  0  0  0  0
 20 23  1  0  0  0  0
 23 24  1  0  0  0  0
 25 26  2  0  0  0  0
 25 27  1  0  0  0  0
 27 28  1  0  0  0  0
 27 29  1  0  0  0  0
 27 30  1  0  0  0  0
M  END
> <ConfClashScore>
0.0395391 

> <ConfOneFourInteractionScore>
-0.95717 

> <ConfScore>
4.49172 

> <ConfScorePBest>
0.0143775 

> <ConfTolerance>
0.25 

$$$$
L09.****
  PyMOL2.4          3D                             0

 30 30  0  0  0  0  0  0  0  0999 V2000
   12.0418   -5.3456    0.3015 C   0  0  0  1  0  0  0  0  0  0  0  0
   11.9714   -5.8995    1.2142 H   0  0  0  1  0  0  0  0  0  0  0  0
   12.2632   -6.3906   -0.6491 O   0  0  0  1  0  0  0  0  0  0  0  0
   12.4710   -6.0072   -1.5043 H   0  0  0  1  0  0  0  0  0  0  0  0
   11.3025   -5.0403    0.0962 C   0  0  0  1  0  0  0  0  0  0  0  0
   10.8208   -5.6562   -0.6342 H   0  0  0  1  0  0  0  0  0  0  0  0
   10.5083   -5.2778    1.2558 O   0  0  0  1  0  0  0  0  0  0  0  0
    9.5794   -5.1822    1.0331 H   0  0  0  1  0  0  0  0  0  0  0  0
   11.2237   -4.2407   -0.0907 C   0  0  0  1  0  0  0  0  0  0  0  0
   10.4567   -3.8160    0.5227 H   0  0  0  1  0  0  0  0  0  0  0  0
   12.6224   -4.0507    0.1325 C   0  0  0  1  0  0  0  0  0  0  0  0
   13.0777   -3.4455    0.8884 H   0  0  0  1  0  0  0  0  0  0  0  0
   13.4613   -3.8182   -0.9648 O   0  0  0  1  0  0  0  0  0  0  0  0
   13.0860   -3.1260   -1.5141 H   0  0  0  1  0  0  0  0  0  0  0  0
   13.3441   -5.0382    1.6151 N   0  0  0  1  0  0  0  0  0  0  0  0
   12.8152   -4.9719    2.4375 H   0  0  0  1  0  0  0  0  0  0  0  0
   11.8842   -3.7463   -0.0724 O   0  0  0  1  0  0  0  0  0  0  0  0
   12.7012   -4.8504    0.3194 C   0  0  0  1  0  0  0  0  0  0  0  0
   13.4478   -5.2689   -0.3228 H   0  0  0  1  0  0  0  0  0  0  0  0
   10.6655   -3.9377   -1.4517 C   0  0  0  1  0  0  0  0  0  0  0  0
   10.3931   -2.9048   -1.5131 H   0  0  0  1  0  0  0  0  0  0  0  0
    9.8047   -4.5458   -1.6370 H   0  0  0  1  0  0  0  0  0  0  0  0
   11.6819   -4.2301   -2.4057 O   0  0  0  1  0  0  0  0  0  0  0  0
   11.3547   -4.0458   -3.2892 H   0  0  0  1  0  0  0  0  0  0  0  0
   14.6634   -5.3025    1.6837 C   0  0  0  1  0  0  0  0  0  0  0  0
   15.3903   -5.3461    0.6921 O   0  0  0  1  0  0  0  0  0  0  0  0
   15.2145   -5.5481    3.0748 C   0  0  0  1  0  0  0  0  0  0  0  0
   16.1041   -6.1390    3.0074 H   0  0  0  1  0  0  0  0  0  0  0  0
   14.4852   -6.0676    3.6605 H   0  0  0  1  0  0  0  0  0  0  0  0
   15.4433   -4.6112    3.5381 H   0  0  0  1  0  0  0  0  0  0  0  0
  1  2  1  0  0  0  0
  1  3  1  0  0  0  0
  1  5  1  0  0  0  0
  1 18  1  0  0  0  0
  3  4  1  0  0  0  0
  5  6  1  0  0  0  0
  5  7  1  0  0  0  0
  5  9  1  0  0  0  0
  7  8  1  0  0  0  0
  9 10  1  0  0  0  0
  9 17  1  0  0  0  0
  9 20  1  0  0  0  0
 11 12  1  0  0  0  0
 11 13  1  0  0  0  0
 11 17  1  0  0  0  0
 11 18  1  0  0  0  0
 13 14  1  0  0  0  0
 15 16  1  0  0  0  0
 15 18  1  0  0  0  0
 15 25  1  0  0  0  0
 18 19  1  0  0  0  0
 20 21  1  0  0  0  0
 20 22  1  0  0  0  0
 20 23  1  0  0  0  0
 23 24  1  0  0  0  0
 25 26  2  0  0  0  0
 25 27  1  0  0  0  0
 27 28  1  0  0  0  0
 27 29  1  0  0  0  0
 27 30  1  0  0  0  0
M  END
> <ConfClashScore>
0.0396581 

> <ConfOneFourInteractionScore>
-0.972815 

> <ConfScore>
4.50566 

> <ConfScorePBest>
0.0142745 

> <ConfTolerance>
0.293402 

$$$$
L09.****
  PyMOL2.4          3D                             0

 30 30  0  0  0  0  0  0  0  0999 V2000
   11.9914   -5.3256    0.0916 C   0  0  0  1  0  0  0  0  0  0  0  0
   11.9053   -6.2888   -0.3665 H   0  0  0  1  0  0  0  0  0  0  0  0
   12.2663   -5.6714    1.4516 O   0  0  0  1  0  0  0  0  0  0  0  0
   12.8660   -6.4207    1.4768 H   0  0  0  1  0  0  0  0  0  0  0  0
   11.2624   -4.9379    0.0981 C   0  0  0  1  0  0  0  0  0  0  0  0
   10.8280   -5.0159    1.0729 H   0  0  0  1  0  0  0  0  0  0  0  0
   10.3613   -5.7340   -0.6675 O   0  0  0  1  0  0  0  0  0  0  0  0
    9.5108   -5.7717   -0.2240 H   0  0  0  1  0  0  0  0  0  0  0  0
   11.2076   -4.1577   -0.1643 C   0  0  0  1  0  0  0  0  0  0  0  0
   10.4703   -4.1191   -0.9387 H   0  0  0  1  0  0  0  0  0  0  0  0
   12.6098   -4.1519   -0.4398 C   0  0  0  1  0  0  0  0  0  0  0  0
   13.1334   -4.0027   -1.3610 H   0  0  0  1  0  0  0  0  0  0  0  0
   13.3714   -3.4255    0.4684 O   0  0  0  1  0  0  0  0  0  0  0  0
   13.3568   -2.4962    0.2279 H   0  0  0  1  0  0  0  0  0  0  0  0
   13.1907   -5.6995   -1.2965 N   0  0  0  1  0  0  0  0  0  0  0  0
   12.5674   -6.0364   -1.9735 H   0  0  0  1  0  0  0  0  0  0  0  0
   11.8819   -3.7652   -0.4332 O   0  0  0  1  0  0  0  0  0  0  0  0
   12.6646   -4.9322   -0.1774 C   0  0  0  1  0  0  0  0  0  0  0  0
   13.4581   -5.0281    0.5340 H   0  0  0  1  0  0  0  0  0  0  0  0
   10.5930   -3.1941    0.8223 C   0  0  0  1  0  0  0  0  0  0  0  0
   10.4059   -2.2657    0.3244 H   0  0  0  1  0  0  0  0  0  0  0  0
   11.2838   -3.0365    1.6241 H   0  0  0  1  0  0  0  0  0  0  0  0
    9.3708   -3.6762    1.3619 O   0  0  0  1  0  0  0  0  0  0  0  0
    8.6466   -3.4365    0.7792 H   0  0  0  1  0  0  0  0  0  0  0  0
   14.4994   -5.9617   -1.4335 C   0  0  0  1  0  0  0  0  0  0  0  0
   15.3646   -5.4369   -0.7338 O   0  0  0  1  0  0  0  0  0  0  0  0
   14.8615   -6.9584   -2.5173 C   0  0  0  1  0  0  0  0  0  0  0  0
   14.3628   -7.8864   -2.3304 H   0  0  0  1  0  0  0  0  0  0  0  0
   15.9198   -7.1162   -2.5172 H   0  0  0  1  0  0  0  0  0  0  0  0
   14.5575   -6.5758   -3.4693 H   0  0  0  1  0  0  0  0  0  0  0  0
  1  2  1  0  0  0  0
  1  3  1  0  0  0  0
  1  5  1  0  0  0  0
  1 18  1  0  0  0  0
  3  4  1  0  0  0  0
  5  6  1  0  0  0  0
  5  7  1  0  0  0  0
  5  9  1  0  0  0  0
  7  8  1  0  0  0  0
  9 10  1  0  0  0  0
  9 17  1  0  0  0  0
  9 20  1  0  0  0  0
 11 12  1  0  0  0  0
 11 13  1  0  0  0  0
 11 17  1  0  0  0  0
 11 18  1  0  0  0  0
 13 14  1  0  0  0  0
 15 16  1  0  0  0  0
 15 18  1  0  0  0  0
 15 25  1  0  0  0  0
 18 19  1  0  0  0  0
 20 21  1  0  0  0  0
 20 22  1  0  0  0  0
 20 23  1  0  0  0  0
 23 24  1  0  0  0  0
 25 26  2  0  0  0  0
 25 27  1  0  0  0  0
 27 28  1  0  0  0  0
 27 29  1  0  0  0  0
 27 30  1  0  0  0  0
M  END
> <ConfClashScore>
0.0395391 

> <ConfOneFourInteractionScore>
-0.953051 

> <ConfScore>
4.53067 

> <ConfScorePBest>
0.0141715 

> <ConfTolerance>
0.25 

$$$$
L09.****
  PyMOL2.4          3D                             0

 30 30  0  0  0  0  0  0  0  0999 V2000
   12.0766   -5.3086    0.1281 C   0  0  0  1  0  0  0  0  0  0  0  0
   12.1176   -6.3030   -0.2647 H   0  0  0  1  0  0  0  0  0  0  0  0
   12.2061   -5.5303    1.5333 O   0  0  0  1  0  0  0  0  0  0  0  0
   11.7142   -6.3169    1.7802 H   0  0  0  1  0  0  0  0  0  0  0  0
   11.3163   -4.9909    0.0752 C   0  0  0  1  0  0  0  0  0  0  0  0
   10.7556   -5.1577    0.9711 H   0  0  0  1  0  0  0  0  0  0  0  0
   10.6900   -5.8802   -0.8461 O   0  0  0  1  0  0  0  0  0  0  0  0
    9.7427   -5.8880   -0.6904 H   0  0  0  1  0  0  0  0  0  0  0  0
   11.2080   -4.2258   -0.2139 C   0  0  0  1  0  0  0  0  0  0  0  0
   10.4555   -4.2179   -0.9745 H   0  0  0  1  0  0  0  0  0  0  0  0
   12.6191   -4.0953   -0.3972 C   0  0  0  1  0  0  0  0  0  0  0  0
   13.1881   -3.9200   -1.2863 H   0  0  0  1  0  0  0  0  0  0  0  0
   13.2472   -3.2788    0.5363 O   0  0  0  1  0  0  0  0  0  0  0  0
   13.6112   -2.5081    0.0945 H   0  0  0  1  0  0  0  0  0  0  0  0
   13.3613   -5.5871   -1.2118 N   0  0  0  1  0  0  0  0  0  0  0  0
   13.0408   -5.4334   -2.1251 H   0  0  0  1  0  0  0  0  0  0  0  0
   11.8599   -3.7784   -0.4500 O   0  0  0  1  0  0  0  0  0  0  0  0
   12.7275   -4.8604   -0.1082 C   0  0  0  1  0  0  0  0  0  0  0  0
   13.4973   -4.8829    0.6346 H   0  0  0  1  0  0  0  0  0  0  0  0
   10.5348   -3.4076    0.8647 C   0  0  0  1  0  0  0  0  0  0  0  0
    9.6266   -3.8962    1.1497 H   0  0  0  1  0  0  0  0  0  0  0  0
   10.3106   -2.4384    0.4707 H   0  0  0  1  0  0  0  0  0  0  0  0
   11.3506   -3.2535    2.0172 O   0  0  0  1  0  0  0  0  0  0  0  0
   11.1627   -3.9599    2.6395 H   0  0  0  1  0  0  0  0  0  0  0  0
   14.3608   -6.4518   -1.0161 C   0  0  0  1  0  0  0  0  0  0  0  0
   14.7275   -6.8098    0.1023 O   0  0  0  1  0  0  0  0  0  0  0  0
   15.0315   -6.9782   -2.2701 C   0  0  0  1  0  0  0  0  0  0  0  0
   15.5601   -6.1830   -2.7530 H   0  0  0  1  0  0  0  0  0  0  0  0
   14.2889   -7.3677   -2.9347 H   0  0  0  1  0  0  0  0  0  0  0  0
   15.7186   -7.7552   -2.0074 H   0  0  0  1  0  0  0  0  0  0  0  0
  1  2  1  0  0  0  0
  1  3  1  0  0  0  0
  1  5  1  0  0  0  0
  1 18  1  0  0  0  0
  3  4  1  0  0  0  0
  5  6  1  0  0  0  0
  5  7  1  0  0  0  0
  5  9  1  0  0  0  0
  7  8  1  0  0  0  0
  9 10  1  0  0  0  0
  9 17  1  0  0  0  0
  9 20  1  0  0  0  0
 11 12  1  0  0  0  0
 11 13  1  0  0  0  0
 11 17  1  0  0  0  0
 11 18  1  0  0  0  0
 13 14  1  0  0  0  0
 15 16  1  0  0  0  0
 15 18  1  0  0  0  0
 15 25  1  0  0  0  0
 18 19  1  0  0  0  0
 20 21  1  0  0  0  0
 20 22  1  0  0  0  0
 20 23  1  0  0  0  0
 23 24  1  0  0  0  0
 25 26  2  0  0  0  0
 25 27  1  0  0  0  0
 27 28  1  0  0  0  0
 27 29  1  0  0  0  0
 27 30  1  0  0  0  0
M  END
> <ConfClashScore>
0.0407266 

> <ConfOneFourInteractionScore>
-0.957877 

> <ConfScore>
4.54411 

> <ConfScorePBest>
0.0140685 

> <ConfTolerance>
0.25 

$$$$
L09.****
  PyMOL2.4          3D                             0

 30 30  0  0  0  0  0  0  0  0999 V2000
   11.9580   -5.2039    0.1183 C   0  0  0  1  0  0  0  0  0  0  0  0
   11.9828   -5.8965    0.9336 H   0  0  0  1  0  0  0  0  0  0  0  0
   12.2673   -6.0482   -0.9936 O   0  0  0  1  0  0  0  0  0  0  0  0
   12.2771   -6.9644   -0.7073 H   0  0  0  1  0  0  0  0  0  0  0  0
   11.2019   -4.8847    0.0272 C   0  0  0  1  0  0  0  0  0  0  0  0
   10.6542   -5.4063   -0.7297 H   0  0  0  1  0  0  0  0  0  0  0  0
   10.5545   -5.3260    1.2179 O   0  0  0  1  0  0  0  0  0  0  0  0
   10.1161   -6.1639    1.0527 H   0  0  0  1  0  0  0  0  0  0  0  0
   11.1047   -4.0688   -0.0464 C   0  0  0  1  0  0  0  0  0  0  0  0
   10.4137   -3.7412    0.7020 H   0  0  0  1  0  0  0  0  0  0  0  0
   12.5183   -3.8904    0.0620 C   0  0  0  1  0  0  0  0  0  0  0  0
   13.0521   -3.3774    0.8345 H   0  0  0  1  0  0  0  0  0  0  0  0
   13.2625   -3.5549   -1.0762 O   0  0  0  1  0  0  0  0  0  0  0  0
   14.1994   -3.6100   -0.8742 H   0  0  0  1  0  0  0  0  0  0  0  0
   13.3194   -4.9414    1.4006 N   0  0  0  1  0  0  0  0  0  0  0  0
   12.8313   -4.7606    2.2309 H   0  0  0  1  0  0  0  0  0  0  0  0
   11.7634   -3.5721   -0.0289 O   0  0  0  1  0  0  0  0  0  0  0  0
   12.6156   -4.7064    0.1356 C   0  0  0  1  0  0  0  0  0  0  0  0
   13.3450   -5.0477   -0.5689 H   0  0  0  1  0  0  0  0  0  0  0  0
   10.3230   -3.7338   -1.2841 C   0  0  0  1  0  0  0  0  0  0  0  0
   10.8410   -4.1056   -2.1433 H   0  0  0  1  0  0  0  0  0  0  0  0
   10.2182   -2.6718   -1.3620 H   0  0  0  1  0  0  0  0  0  0  0  0
    9.0363   -4.3313   -1.2134 O   0  0  0  1  0  0  0  0  0  0  0  0
    8.8121   -4.7110   -2.0661 H   0  0  0  1  0  0  0  0  0  0  0  0
   14.5737   -5.3827    1.5060 C   0  0  0  1  0  0  0  0  0  0  0  0
   15.2468   -5.7226    0.5365 O   0  0  0  1  0  0  0  0  0  0  0  0
   15.1329   -5.4433    2.9094 C   0  0  0  1  0  0  0  0  0  0  0  0
   16.1513   -5.7698    2.8744 H   0  0  0  1  0  0  0  0  0  0  0  0
   14.5578   -6.1315    3.4929 H   0  0  0  1  0  0  0  0  0  0  0  0
   15.0854   -4.4713    3.3542 H   0  0  0  1  0  0  0  0  0  0  0  0
  1  2  1  0  0  0  0
  1  3  1  0  0  0  0
  1  5  1  0  0  0  0
  1 18  1  0  0  0  0
  3  4  1  0  0  0  0
  5  6  1  0  0  0  0
  5  7  1  0  0  0  0
  5  9  1  0  0  0  0
  7  8  1  0  0  0  0
  9 10  1  0  0  0  0
  9 17  1  0  0  0  0
  9 20  1  0  0  0  0
 11 12  1  0  0  0  0
 11 13  1  0  0  0  0
 11 17  1  0  0  0  0
 11 18  1  0  0  0  0
 13 14  1  0  0  0  0
 15 16  1  0  0  0  0
 15 18  1  0  0  0  0
 15 25  1  0  0  0  0
 18 19  1  0  0  0  0
 20 21  1  0  0  0  0
 20 22  1  0  0  0  0
 20 23  1  0  0  0  0
 23 24  1  0  0  0  0
 25 26  2  0  0  0  0
 25 27  1  0  0  0  0
 27 28  1  0  0  0  0
 27 29  1  0  0  0  0
 27 30  1  0  0  0  0
M  END
> <ConfClashScore>
0.0395391 

> <ConfOneFourInteractionScore>
-0.95717 

> <ConfScore>
4.56667 

> <ConfScorePBest>
0.0139655 

> <ConfTolerance>
0.531489 

$$$$
L09.****
  PyMOL2.4          3D                             0

 30 30  0  0  0  0  0  0  0  0999 V2000
   12.0029   -5.3323   -0.1508 C   0  0  0  1  0  0  0  0  0  0  0  0
   11.9220   -6.1726   -0.8082 H   0  0  0  1  0  0  0  0  0  0  0  0
   12.2410   -5.9790    1.1021 O   0  0  0  1  0  0  0  0  0  0  0  0
   12.7246   -6.7951    0.9546 H   0  0  0  1  0  0  0  0  0  0  0  0
   11.2747   -4.9465   -0.0989 C   0  0  0  1  0  0  0  0  0  0  0  0
   10.5109   -5.4717   -0.6334 H   0  0  0  1  0  0  0  0  0  0  0  0
   10.8345   -5.0608    1.2520 O   0  0  0  1  0  0  0  0  0  0  0  0
    9.8789   -4.9758    1.2860 H   0  0  0  1  0  0  0  0  0  0  0  0
   11.2292   -4.1323   -0.2242 C   0  0  0  1  0  0  0  0  0  0  0  0
   10.6947   -3.6636    0.5755 H   0  0  0  1  0  0  0  0  0  0  0  0
   12.6390   -4.0888   -0.4533 C   0  0  0  1  0  0  0  0  0  0  0  0
   13.2105   -3.7724   -1.3007 H   0  0  0  1  0  0  0  0  0  0  0  0
   13.3514   -3.5502    0.6268 O   0  0  0  1  0  0  0  0  0  0  0  0
   12.7355   -3.1942    1.2714 H   0  0  0  1  0  0  0  0  0  0  0  0
   13.3065   -5.4993   -1.5135 N   0  0  0  1  0  0  0  0  0  0  0  0
   12.7038   -5.7279   -2.2516 H   0  0  0  1  0  0  0  0  0  0  0  0
   11.9119   -3.7040   -0.4014 O   0  0  0  1  0  0  0  0  0  0  0  0
   12.6845   -4.9029   -0.3280 C   0  0  0  1  0  0  0  0  0  0  0  0
   13.4313   -5.1052    0.4112 H   0  0  0  1  0  0  0  0  0  0  0  0
   10.3451   -3.7913   -1.3921 C   0  0  0  1  0  0  0  0  0  0  0  0
    9.4208   -4.3203   -1.2890 H   0  0  0  1  0  0  0  0  0  0  0  0
   10.8335   -4.0979   -2.2934 H   0  0  0  1  0  0  0  0  0  0  0  0
   10.0676   -2.4008   -1.4745 O   0  0  0  1  0  0  0  0  0  0  0  0
    9.4768   -2.1491   -0.7609 H   0  0  0  1  0  0  0  0  0  0  0  0
   14.6035   -5.7670   -1.7025 C   0  0  0  1  0  0  0  0  0  0  0  0
   15.4492   -5.6415   -0.8178 O   0  0  0  1  0  0  0  0  0  0  0  0
   14.9824   -6.2423   -3.0916 C   0  0  0  1  0  0  0  0  0  0  0  0
   15.9744   -5.9148   -3.3229 H   0  0  0  1  0  0  0  0  0  0  0  0
   14.2973   -5.8365   -3.8063 H   0  0  0  1  0  0  0  0  0  0  0  0
   14.9429   -7.3110   -3.1257 H   0  0  0  1  0  0  0  0  0  0  0  0
  1  2  1  0  0  0  0
  1  3  1  0  0  0  0
  1  5  1  0  0  0  0
  1 18  1  0  0  0  0
  3  4  1  0  0  0  0
  5  6  1  0  0  0  0
  5  7  1  0  0  0  0
  5  9  1  0  0  0  0
  7  8  1  0  0  0  0
  9 10  1  0  0  0  0
  9 17  1  0  0  0  0
  9 20  1  0  0  0  0
 11 12  1  0  0  0  0
 11 13  1  0  0  0  0
 11 17  1  0  0  0  0
 11 18  1  0  0  0  0
 13 14  1  0  0  0  0
 15 16  1  0  0  0  0
 15 18  1  0  0  0  0
 15 25  1  0  0  0  0
 18 19  1  0  0  0  0
 20 21  1  0  0  0  0
 20 22  1  0  0  0  0
 20 23  1  0  0  0  0
 23 24  1  0  0  0  0
 25 26  2  0  0  0  0
 25 27  1  0  0  0  0
 27 28  1  0  0  0  0
 27 29  1  0  0  0  0
 27 30  1  0  0  0  0
M  END
> <ConfClashScore>
0.0408666 

> <ConfOneFourInteractionScore>
-0.95717 

> <ConfScore>
4.584 

> <ConfScorePBest>
0.0138625 

> <ConfTolerance>
0.268423 

$$$$
L09.****
  PyMOL2.4          3D                             0

 30 30  0  0  0  0  0  0  0  0999 V2000
   12.0111   -5.2576   -0.1640 C   0  0  0  1  0  0  0  0  0  0  0  0
   11.9519   -6.1663   -0.7258 H   0  0  0  1  0  0  0  0  0  0  0  0
   12.1671   -5.7362    1.1744 O   0  0  0  1  0  0  0  0  0  0  0  0
   12.3714   -6.6741    1.1576 H   0  0  0  1  0  0  0  0  0  0  0  0
   11.2801   -4.8756   -0.1241 C   0  0  0  1  0  0  0  0  0  0  0  0
   10.5550   -5.4025   -0.7084 H   0  0  0  1  0  0  0  0  0  0  0  0
   10.7750   -5.0640    1.1955 O   0  0  0  1  0  0  0  0  0  0  0  0
   10.1684   -5.8080    1.2033 H   0  0  0  1  0  0  0  0  0  0  0  0
   11.2296   -4.0651   -0.2695 C   0  0  0  1  0  0  0  0  0  0  0  0
   10.7248   -3.5907    0.5459 H   0  0  0  1  0  0  0  0  0  0  0  0
   12.6400   -4.0177   -0.4948 C   0  0  0  1  0  0  0  0  0  0  0  0
   13.2299   -3.7055   -1.3311 H   0  0  0  1  0  0  0  0  0  0  0  0
   13.3354   -3.4815    0.6084 O   0  0  0  1  0  0  0  0  0  0  0  0
   12.8374   -3.6468    1.4123 H   0  0  0  1  0  0  0  0  0  0  0  0
   13.2986   -5.4884   -1.4948 N   0  0  0  1  0  0  0  0  0  0  0  0
   12.7822   -5.5680   -2.3239 H   0  0  0  1  0  0  0  0  0  0  0  0
   11.9101   -3.6366   -0.4549 O   0  0  0  1  0  0  0  0  0  0  0  0
   12.6905   -4.8282   -0.3493 C   0  0  0  1  0  0  0  0  0  0  0  0
   13.4334   -5.0051    0.4001 H   0  0  0  1  0  0  0  0  0  0  0  0
   10.3193   -3.6882   -1.4059 C   0  0  0  1  0  0  0  0  0  0  0  0
   10.7494   -4.0384   -2.3209 H   0  0  0  1  0  0  0  0  0  0  0  0
   10.2323   -2.6222   -1.4370 H   0  0  0  1  0  0  0  0  0  0  0  0
    9.0209   -4.2477   -1.2691 O   0  0  0  1  0  0  0  0  0  0  0  0
    8.3618   -3.5587   -1.3808 H   0  0  0  1  0  0  0  0  0  0  0  0
   14.5364   -5.9896   -1.4555 C   0  0  0  1  0  0  0  0  0  0  0  0
   15.2127   -6.0105   -0.4403 O   0  0  0  1  0  0  0  0  0  0  0  0
   15.0655   -6.5416   -2.7649 C   0  0  0  1  0  0  0  0  0  0  0  0
   14.7363   -7.5525   -2.8854 H   0  0  0  1  0  0  0  0  0  0  0  0
   16.1351   -6.5136   -2.7572 H   0  0  0  1  0  0  0  0  0  0  0  0
   14.6985   -5.9482   -3.5761 H   0  0  0  1  0  0  0  0  0  0  0  0
  1  2  1  0  0  0  0
  1  3  1  0  0  0  0
  1  5  1  0  0  0  0
  1 18  1  0  0  0  0
  3  4  1  0  0  0  0
  5  6  1  0  0  0  0
  5  7  1  0  0  0  0
  5  9  1  0  0  0  0
  7  8  1  0  0  0  0
  9 10  1  0  0  0  0
  9 17  1  0  0  0  0
  9 20  1  0  0  0  0
 11 12  1  0  0  0  0
 11 13  1  0  0  0  0
 11 17  1  0  0  0  0
 11 18  1  0  0  0  0
 13 14  1  0  0  0  0
 15 16  1  0  0  0  0
 15 18  1  0  0  0  0
 15 25  1  0  0  0  0
 18 19  1  0  0  0  0
 20 21  1  0  0  0  0
 20 22  1  0  0  0  0
 20 23  1  0  0  0  0
 23 24  1  0  0  0  0
 25 26  2  0  0  0  0
 25 27  1  0  0  0  0
 27 28  1  0  0  0  0
 27 29  1  0  0  0  0
 27 30  1  0  0  0  0
M  END
> <ConfClashScore>
0.0401657 

> <ConfOneFourInteractionScore>
-0.953051 

> <ConfScore>
4.58461 

> <ConfScorePBest>
0.0137595 

> <ConfTolerance>
0.25 

$$$$
L09.****
  PyMOL2.4          3D                             0

 30 30  0  0  0  0  0  0  0  0999 V2000
   12.0757   -5.1585    0.3211 C   0  0  0  1  0  0  0  0  0  0  0  0
   12.2580   -5.3986    1.3477 H   0  0  0  1  0  0  0  0  0  0  0  0
   12.1078   -6.4440   -0.2815 O   0  0  0  1  0  0  0  0  0  0  0  0
   11.8615   -7.1080    0.3666 H   0  0  0  1  0  0  0  0  0  0  0  0
   11.2947   -4.9094    0.2220 C   0  0  0  1  0  0  0  0  0  0  0  0
   10.7361   -4.9871    1.1313 H   0  0  0  1  0  0  0  0  0  0  0  0
   10.6449   -5.8604   -0.6178 O   0  0  0  1  0  0  0  0  0  0  0  0
    9.7665   -6.0423   -0.2761 H   0  0  0  1  0  0  0  0  0  0  0  0
   11.1336   -4.2050   -0.1761 C   0  0  0  1  0  0  0  0  0  0  0  0
   10.4180   -4.3874   -0.9505 H   0  0  0  1  0  0  0  0  0  0  0  0
   12.5333   -3.9981   -0.3764 C   0  0  0  1  0  0  0  0  0  0  0  0
   13.0759   -3.9423   -1.2969 H   0  0  0  1  0  0  0  0  0  0  0  0
   13.1772   -3.0339    0.4075 O   0  0  0  1  0  0  0  0  0  0  0  0
   14.1057   -2.9933    0.1669 H   0  0  0  1  0  0  0  0  0  0  0  0
   13.5341   -5.5048   -0.8464 N   0  0  0  1  0  0  0  0  0  0  0  0
   13.2229   -5.7420   -1.7449 H   0  0  0  1  0  0  0  0  0  0  0  0
   11.7535   -3.7497   -0.4752 O   0  0  0  1  0  0  0  0  0  0  0  0
   12.6944   -4.7025    0.0217 C   0  0  0  1  0  0  0  0  0  0  0  0
   13.3799   -4.4950    0.8166 H   0  0  0  1  0  0  0  0  0  0  0  0
   10.3783   -3.2177    0.6704 C   0  0  0  1  0  0  0  0  0  0  0  0
    9.5122   -3.6920    1.0827 H   0  0  0  1  0  0  0  0  0  0  0  0
   10.0773   -2.3878    0.0658 H   0  0  0  1  0  0  0  0  0  0  0  0
   11.2107   -2.7563    1.7248 O   0  0  0  1  0  0  0  0  0  0  0  0
   10.7281   -2.1221    2.2600 H   0  0  0  1  0  0  0  0  0  0  0  0
   14.7313   -5.9213   -0.4239 C   0  0  0  1  0  0  0  0  0  0  0  0
   15.1932   -5.6204    0.6644 O   0  0  0  1  0  0  0  0  0  0  0  0
   15.4993   -6.8045   -1.3879 C   0  0  0  1  0  0  0  0  0  0  0  0
   14.8106   -7.3520   -1.9968 H   0  0  0  1  0  0  0  0  0  0  0  0
   16.1090   -7.4889   -0.8357 H   0  0  0  1  0  0  0  0  0  0  0  0
   16.1204   -6.1958   -2.0114 H   0  0  0  1  0  0  0  0  0  0  0  0
  1  2  1  0  0  0  0
  1  3  1  0  0  0  0
  1  5  1  0  0  0  0
  1 18  1  0  0  0  0
  3  4  1  0  0  0  0
  5  6  1  0  0  0  0
  5  7  1  0  0  0  0
  5  9  1  0  0  0  0
  7  8  1  0  0  0  0
  9 10  1  0  0  0  0
  9 17  1  0  0  0  0
  9 20  1  0  0  0  0
 11 12  1  0  0  0  0
 11 13  1  0  0  0  0
 11 17  1  0  0  0  0
 11 18  1  0  0  0  0
 13 14  1  0  0  0  0
 15 16  1  0  0  0  0
 15 18  1  0  0  0  0
 15 25  1  0  0  0  0
 18 19  1  0  0  0  0
 20 21  1  0  0  0  0
 20 22  1  0  0  0  0
 20 23  1  0  0  0  0
 23 24  1  0  0  0  0
 25 26  2  0  0  0  0
 25 27  1  0  0  0  0
 27 28  1  0  0  0  0
 27 29  1  0  0  0  0
 27 30  1  0  0  0  0
M  END
> <ConfClashScore>
0.0410137 

> <ConfOneFourInteractionScore>
-0.957877 

> <ConfScore>
4.59081 

> <ConfScorePBest>
0.0136565 

> <ConfTolerance>
0.25 

$$$$
L09.****
  PyMOL2.4          3D                             0

 30 30  0  0  0  0  0  0  0  0999 V2000
   11.9480   -5.2083    0.1170 C   0  0  0  1  0  0  0  0  0  0  0  0
   11.9725   -5.9167    0.9186 H   0  0  0  1  0  0  0  0  0  0  0  0
   12.1767   -6.0424   -1.0217 O   0  0  0  1  0  0  0  0  0  0  0  0
   12.3095   -6.9485   -0.7337 H   0  0  0  1  0  0  0  0  0  0  0  0
   11.1944   -4.8812    0.0345 C   0  0  0  1  0  0  0  0  0  0  0  0
   10.6447   -5.3842   -0.7335 H   0  0  0  1  0  0  0  0  0  0  0  0
   10.4808   -5.2655    1.2048 O   0  0  0  1  0  0  0  0  0  0  0  0
   10.2549   -6.1970    1.1510 H   0  0  0  1  0  0  0  0  0  0  0  0
   11.1041   -4.0636   -0.0286 C   0  0  0  1  0  0  0  0  0  0  0  0
   10.3578   -3.7139    0.6538 H   0  0  0  1  0  0  0  0  0  0  0  0
   12.5200   -3.8993    0.0733 C   0  0  0  1  0  0  0  0  0  0  0  0
   13.0855   -3.3872    0.8235 H   0  0  0  1  0  0  0  0  0  0  0  0
   13.2612   -3.6382   -1.0909 O   0  0  0  1  0  0  0  0  0  0  0  0
   14.1837   -3.5056   -0.8605 H   0  0  0  1  0  0  0  0  0  0  0  0
   13.2700   -4.9205    1.4295 N   0  0  0  1  0  0  0  0  0  0  0  0
   12.9798   -4.3861    2.1979 H   0  0  0  1  0  0  0  0  0  0  0  0
   11.7674   -3.5731   -0.0091 O   0  0  0  1  0  0  0  0  0  0  0  0
   12.6103   -4.7169    0.1364 C   0  0  0  1  0  0  0  0  0  0  0  0
   13.3599   -5.0671   -0.5420 H   0  0  0  1  0  0  0  0  0  0  0  0
   10.4277   -3.8090   -1.3475 C   0  0  0  1  0  0  0  0  0  0  0  0
   10.2780   -2.7554   -1.4589 H   0  0  0  1  0  0  0  0  0  0  0  0
    9.4804   -4.3065   -1.3493 H   0  0  0  1  0  0  0  0  0  0  0  0
   11.1922   -4.2800   -2.4495 O   0  0  0  1  0  0  0  0  0  0  0  0
   10.6022   -4.6101   -3.1311 H   0  0  0  1  0  0  0  0  0  0  0  0
   14.2534   -5.8094    1.5968 C   0  0  0  1  0  0  0  0  0  0  0  0
   14.6067   -6.5913    0.7152 O   0  0  0  1  0  0  0  0  0  0  0  0
   14.9231   -5.8024    2.9572 C   0  0  0  1  0  0  0  0  0  0  0  0
   15.2766   -4.8166    3.1763 H   0  0  0  1  0  0  0  0  0  0  0  0
   15.7480   -6.4839    2.9518 H   0  0  0  1  0  0  0  0  0  0  0  0
   14.2172   -6.1020    3.7035 H   0  0  0  1  0  0  0  0  0  0  0  0
  1  2  1  0  0  0  0
  1  3  1  0  0  0  0
  1  5  1  0  0  0  0
  1 18  1  0  0  0  0
  3  4  1  0  0  0  0
  5  6  1  0  0  0  0
  5  7  1  0  0  0  0
  5  9  1  0  0  0  0
  7  8  1  0  0  0  0
  9 10  1  0  0  0  0
  9 17  1  0  0  0  0
  9 20  1  0  0  0  0
 11 12  1  0  0  0  0
 11 13  1  0  0  0  0
 11 17  1  0  0  0  0
 11 18  1  0  0  0  0
 13 14  1  0  0  0  0
 15 16  1  0  0  0  0
 15 18  1  0  0  0  0
 15 25  1  0  0  0  0
 18 19  1  0  0  0  0
 20 21  1  0  0  0  0
 20 22  1  0  0  0  0
 20 23  1  0  0  0  0
 23 24  1  0  0  0  0
 25 26  2  0  0  0  0
 25 27  1  0  0  0  0
 27 28  1  0  0  0  0
 27 29  1  0  0  0  0
 27 30  1  0  0  0  0
M  END
> <ConfClashScore>
0.0411699 

> <ConfOneFourInteractionScore>
-0.967492 

> <ConfScore>
4.60796 

> <ConfScorePBest>
0.0135535 

> <ConfTolerance>
0.583201 

$$$$
L09.****
  PyMOL2.4          3D                             0

 30 30  0  0  0  0  0  0  0  0999 V2000
   12.0636   -5.2649    0.1635 C   0  0  0  1  0  0  0  0  0  0  0  0
   12.2236   -6.0678   -0.5256 H   0  0  0  1  0  0  0  0  0  0  0  0
   11.8696   -5.9719    1.3893 O   0  0  0  1  0  0  0  0  0  0  0  0
   11.4900   -6.8343    1.2052 H   0  0  0  1  0  0  0  0  0  0  0  0
   11.3293   -4.9121    0.0289 C   0  0  0  1  0  0  0  0  0  0  0  0
   10.5946   -5.2856    0.7112 H   0  0  0  1  0  0  0  0  0  0  0  0
   10.9016   -5.4810   -1.2062 O   0  0  0  1  0  0  0  0  0  0  0  0
   10.1276   -6.0286   -1.0557 H   0  0  0  1  0  0  0  0  0  0  0  0
   11.2729   -4.0925   -0.0462 C   0  0  0  1  0  0  0  0  0  0  0  0
   10.7049   -3.8286   -0.9137 H   0  0  0  1  0  0  0  0  0  0  0  0
   12.6840   -3.9776    0.1477 C   0  0  0  1  0  0  0  0  0  0  0  0
   13.2383   -3.4681    0.9080 H   0  0  0  1  0  0  0  0  0  0  0  0
   13.3960   -3.6748   -1.0073 O   0  0  0  1  0  0  0  0  0  0  0  0
   12.9807   -2.9339   -1.4548 H   0  0  0  1  0  0  0  0  0  0  0  0
   13.8057   -5.3313   -0.6511 N   0  0  0  1  0  0  0  0  0  0  0  0
   13.5944   -5.6054   -1.5680 H   0  0  0  1  0  0  0  0  0  0  0  0
   11.9508   -3.6257    0.0133 O   0  0  0  1  0  0  0  0  0  0  0  0
   12.7405   -4.7972    0.2227 C   0  0  0  1  0  0  0  0  0  0  0  0
   13.1795   -4.9970    1.1778 H   0  0  0  1  0  0  0  0  0  0  0  0
   10.3757   -3.5653    1.0680 C   0  0  0  1  0  0  0  0  0  0  0  0
   10.8501   -3.7529    2.0086 H   0  0  0  1  0  0  0  0  0  0  0  0
    9.4405   -4.0837    1.0300 H   0  0  0  1  0  0  0  0  0  0  0  0
   10.1248   -2.1466    0.9500 O   0  0  0  1  0  0  0  0  0  0  0  0
    9.6344   -1.8430    1.7175 H   0  0  0  1  0  0  0  0  0  0  0  0
   15.0668   -5.4423   -0.1900 C   0  0  0  1  0  0  0  0  0  0  0  0
   15.4196   -5.1570    0.9424 O   0  0  0  1  0  0  0  0  0  0  0  0
   16.0483   -5.9666   -1.2200 C   0  0  0  1  0  0  0  0  0  0  0  0
   16.2410   -7.0027   -1.0349 H   0  0  0  1  0  0  0  0  0  0  0  0
   16.9635   -5.4163   -1.1527 H   0  0  0  1  0  0  0  0  0  0  0  0
   15.6331   -5.8507   -2.1994 H   0  0  0  1  0  0  0  0  0  0  0  0
  1  2  1  0  0  0  0
  1  3  1  0  0  0  0
  1  5  1  0  0  0  0
  1 18  1  0  0  0  0
  3  4  1  0  0  0  0
  5  6  1  0  0  0  0
  5  7  1  0  0  0  0
  5  9  1  0  0  0  0
  7  8  1  0  0  0  0
  9 10  1  0  0  0  0
  9 17  1  0  0  0  0
  9 20  1  0  0  0  0
 11 12  1  0  0  0  0
 11 13  1  0  0  0  0
 11 17  1  0  0  0  0
 11 18  1  0  0  0  0
 13 14  1  0  0  0  0
 15 16  1  0  0  0  0
 15 18  1  0  0  0  0
 15 25  1  0  0  0  0
 18 19  1  0  0  0  0
 20 21  1  0  0  0  0
 20 22  1  0  0  0  0
 20 23  1  0  0  0  0
 23 24  1  0  0  0  0
 25 26  2  0  0  0  0
 25 27  1  0  0  0  0
 27 28  1  0  0  0  0
 27 29  1  0  0  0  0
 27 30  1  0  0  0  0
M  END
> <ConfClashScore>
0.0412225 

> <ConfOneFourInteractionScore>
-0.957877 

> <ConfScore>
4.61596 

> <ConfScorePBest>
0.0134505 

> <ConfTolerance>
0.25 

$$$$
L09.****
  PyMOL2.4          3D                             0

 30 30  0  0  0  0  0  0  0  0999 V2000
   12.0619   -5.2183    0.1127 C   0  0  0  1  0  0  0  0  0  0  0  0
   12.1769   -5.5257    1.1311 H   0  0  0  1  0  0  0  0  0  0  0  0
   12.0854   -6.4805   -0.5588 O   0  0  0  1  0  0  0  0  0  0  0  0
   12.1330   -7.1874    0.0890 H   0  0  0  1  0  0  0  0  0  0  0  0
   11.3144   -4.8826    0.0106 C   0  0  0  1  0  0  0  0  0  0  0  0
   10.6720   -5.5752   -0.4920 H   0  0  0  1  0  0  0  0  0  0  0  0
   10.7123   -4.8290    1.3015 O   0  0  0  1  0  0  0  0  0  0  0  0
    9.8942   -5.3313    1.2946 H   0  0  0  1  0  0  0  0  0  0  0  0
   11.2409   -4.1351   -0.3306 C   0  0  0  1  0  0  0  0  0  0  0  0
   10.6638   -3.5110    0.3193 H   0  0  0  1  0  0  0  0  0  0  0  0
   12.6613   -4.0581   -0.4678 C   0  0  0  1  0  0  0  0  0  0  0  0
   13.2645   -3.9607   -1.3462 H   0  0  0  1  0  0  0  0  0  0  0  0
   13.2618   -3.1696    0.4168 O   0  0  0  1  0  0  0  0  0  0  0  0
   12.8395   -3.2382    1.2761 H   0  0  0  1  0  0  0  0  0  0  0  0
   13.5338   -5.6263   -1.0443 N   0  0  0  1  0  0  0  0  0  0  0  0
   13.2222   -5.7451   -1.9658 H   0  0  0  1  0  0  0  0  0  0  0  0
   11.9149   -3.7232   -0.5696 O   0  0  0  1  0  0  0  0  0  0  0  0
   12.7347   -4.8056   -0.1266 C   0  0  0  1  0  0  0  0  0  0  0  0
   13.4063   -4.7372    0.7036 H   0  0  0  1  0  0  0  0  0  0  0  0
   10.3573   -4.1431   -1.5447 C   0  0  0  1  0  0  0  0  0  0  0  0
    9.4344   -4.6308   -1.3096 H   0  0  0  1  0  0  0  0  0  0  0  0
   10.8472   -4.6687   -2.3376 H   0  0  0  1  0  0  0  0  0  0  0  0
   10.0949   -2.8075   -1.9546 O   0  0  0  1  0  0  0  0  0  0  0  0
    9.4792   -2.3993   -1.3415 H   0  0  0  1  0  0  0  0  0  0  0  0
   14.6809   -6.2219   -0.6638 C   0  0  0  1  0  0  0  0  0  0  0  0
   15.0535   -6.3420    0.5003 O   0  0  0  1  0  0  0  0  0  0  0  0
   15.5056   -6.7512   -1.8209 C   0  0  0  1  0  0  0  0  0  0  0  0
   14.8755   -6.8903   -2.6745 H   0  0  0  1  0  0  0  0  0  0  0  0
   15.9455   -7.6871   -1.5463 H   0  0  0  1  0  0  0  0  0  0  0  0
   16.2778   -6.0496   -2.0585 H   0  0  0  1  0  0  0  0  0  0  0  0
  1  2  1  0  0  0  0
  1  3  1  0  0  0  0
  1  5  1  0  0  0  0
  1 18  1  0  0  0  0
  3  4  1  0  0  0  0
  5  6  1  0  0  0  0
  5  7  1  0  0  0  0
  5  9  1  0  0  0  0
  7  8  1  0  0  0  0
  9 10  1  0  0  0  0
  9 17  1  0  0  0  0
  9 20  1  0  0  0  0
 11 12  1  0  0  0  0
 11 13  1  0  0  0  0
 11 17  1  0  0  0  0
 11 18  1  0  0  0  0
 13 14  1  0  0  0  0
 15 16  1  0  0  0  0
 15 18  1  0  0  0  0
 15 25  1  0  0  0  0
 18 19  1  0  0  0  0
 20 21  1  0  0  0  0
 20 22  1  0  0  0  0
 20 23  1  0  0  0  0
 23 24  1  0  0  0  0
 25 26  2  0  0  0  0
 25 27  1  0  0  0  0
 27 28  1  0  0  0  0
 27 29  1  0  0  0  0
 27 30  1  0  0  0  0
M  END
> <ConfClashScore>
0.0411195 

> <ConfOneFourInteractionScore>
-0.95717 

> <ConfScore>
4.61644 

> <ConfScorePBest>
0.0133475 

> <ConfTolerance>
0.25 

$$$$
L09.****
  PyMOL2.4          3D                             0

 30 30  0  0  0  0  0  0  0  0999 V2000
   11.9961   -5.1956    0.3559 C   0  0  0  1  0  0  0  0  0  0  0  0
   11.9996   -5.7030    1.2980 H   0  0  0  1  0  0  0  0  0  0  0  0
   11.9984   -6.2961   -0.5547 O   0  0  0  1  0  0  0  0  0  0  0  0
   12.4028   -7.0588   -0.1346 H   0  0  0  1  0  0  0  0  0  0  0  0
   11.2766   -4.8043    0.2516 C   0  0  0  1  0  0  0  0  0  0  0  0
   10.5980   -5.0121    1.0523 H   0  0  0  1  0  0  0  0  0  0  0  0
   10.6709   -5.4877   -0.8430 O   0  0  0  1  0  0  0  0  0  0  0  0
   10.0071   -6.0973   -0.5123 H   0  0  0  1  0  0  0  0  0  0  0  0
   11.2673   -4.0050    0.0473 C   0  0  0  1  0  0  0  0  0  0  0  0
   10.6259   -3.8445   -0.7940 H   0  0  0  1  0  0  0  0  0  0  0  0
   12.6962   -3.9874    0.0514 C   0  0  0  1  0  0  0  0  0  0  0  0
   13.3790   -3.4159    0.6448 H   0  0  0  1  0  0  0  0  0  0  0  0
   13.2701   -3.9354   -1.2137 O   0  0  0  1  0  0  0  0  0  0  0  0
   12.6738   -3.4871   -1.8179 H   0  0  0  1  0  0  0  0  0  0  0  0
   13.4767   -4.9343    1.4849 N   0  0  0  1  0  0  0  0  0  0  0  0
   13.0423   -4.8810    2.3618 H   0  0  0  1  0  0  0  0  0  0  0  0
   11.9777   -3.5971   -0.0527 O   0  0  0  1  0  0  0  0  0  0  0  0
   12.7055   -4.7867    0.2557 C   0  0  0  1  0  0  0  0  0  0  0  0
   13.3256   -5.3199   -0.4342 H   0  0  0  1  0  0  0  0  0  0  0  0
   10.5818   -3.1699    1.0901 C   0  0  0  1  0  0  0  0  0  0  0  0
   11.0841   -3.2885    2.0274 H   0  0  0  1  0  0  0  0  0  0  0  0
    9.5645   -3.4870    1.1874 H   0  0  0  1  0  0  0  0  0  0  0  0
   10.6154   -1.8028    0.7061 O   0  0  0  1  0  0  0  0  0  0  0  0
   10.8171   -1.7378   -0.2302 H   0  0  0  1  0  0  0  0  0  0  0  0
   14.8017   -5.1459    1.3806 C   0  0  0  1  0  0  0  0  0  0  0  0
   15.3701   -5.3099    0.3042 O   0  0  0  1  0  0  0  0  0  0  0  0
   15.5696   -5.1715    2.6878 C   0  0  0  1  0  0  0  0  0  0  0  0
   15.8194   -6.1820    2.9357 H   0  0  0  1  0  0  0  0  0  0  0  0
   14.9646   -4.7530    3.4648 H   0  0  0  1  0  0  0  0  0  0  0  0
   16.4668   -4.5975    2.5854 H   0  0  0  1  0  0  0  0  0  0  0  0
  1  2  1  0  0  0  0
  1  3  1  0  0  0  0
  1  5  1  0  0  0  0
  1 18  1  0  0  0  0
  3  4  1  0  0  0  0
  5  6  1  0  0  0  0
  5  7  1  0  0  0  0
  5  9  1  0  0  0  0
  7  8  1  0  0  0  0
  9 10  1  0  0  0  0
  9 17  1  0  0  0  0
  9 20  1  0  0  0  0
 11 12  1  0  0  0  0
 11 13  1  0  0  0  0
 11 17  1  0  0  0  0
 11 18  1  0  0  0  0
 13 14  1  0  0  0  0
 15 16  1  0  0  0  0
 15 18  1  0  0  0  0
 15 25  1  0  0  0  0
 18 19  1  0  0  0  0
 20 21  1  0  0  0  0
 20 22  1  0  0  0  0
 20 23  1  0  0  0  0
 23 24  1  0  0  0  0
 25 26  2  0  0  0  0
 25 27  1  0  0  0  0
 27 28  1  0  0  0  0
 27 29  1  0  0  0  0
 27 30  1  0  0  0  0
M  END
> <ConfClashScore>
0.0409895 

> <ConfOneFourInteractionScore>
-0.968695 

> <ConfScore>
4.61847 

> <ConfScorePBest>
0.0132445 

> <ConfTolerance>
0.476824 

$$$$
L09.****
  PyMOL2.4          3D                             0

 30 30  0  0  0  0  0  0  0  0999 V2000
   11.9238   -5.3085    0.2178 C   0  0  0  1  0  0  0  0  0  0  0  0
   11.7618   -6.3186   -0.0955 H   0  0  0  1  0  0  0  0  0  0  0  0
   12.3128   -5.4791    1.5831 O   0  0  0  1  0  0  0  0  0  0  0  0
   12.6374   -6.3729    1.7146 H   0  0  0  1  0  0  0  0  0  0  0  0
   11.2177   -4.8804    0.2192 C   0  0  0  1  0  0  0  0  0  0  0  0
   10.7858   -4.8581    1.1979 H   0  0  0  1  0  0  0  0  0  0  0  0
   10.3094   -5.7234   -0.4852 O   0  0  0  1  0  0  0  0  0  0  0  0
   10.4826   -5.6644   -1.4276 H   0  0  0  1  0  0  0  0  0  0  0  0
   11.1858   -4.1358   -0.1346 C   0  0  0  1  0  0  0  0  0  0  0  0
   10.3554   -4.0828   -0.8073 H   0  0  0  1  0  0  0  0  0  0  0  0
   12.5651   -4.2463   -0.4915 C   0  0  0  1  0  0  0  0  0  0  0  0
   13.0013   -4.2656   -1.4684 H   0  0  0  1  0  0  0  0  0  0  0  0
   13.4669   -3.4568    0.2206 O   0  0  0  1  0  0  0  0  0  0  0  0
   13.1367   -2.5566    0.2682 H   0  0  0  1  0  0  0  0  0  0  0  0
   13.1318   -5.8824   -1.1561 N   0  0  0  1  0  0  0  0  0  0  0  0
   12.7624   -5.8403   -2.0628 H   0  0  0  1  0  0  0  0  0  0  0  0
   11.8600   -3.8193   -0.4899 O   0  0  0  1  0  0  0  0  0  0  0  0
   12.5970   -4.9909   -0.1377 C   0  0  0  1  0  0  0  0  0  0  0  0
   13.3983   -5.0013    0.5713 H   0  0  0  1  0  0  0  0  0  0  0  0
   10.7996   -3.0947    0.8762 C   0  0  0  1  0  0  0  0  0  0  0  0
   10.8112   -2.1353    0.4024 H   0  0  0  1  0  0  0  0  0  0  0  0
   11.5137   -3.1082    1.6729 H   0  0  0  1  0  0  0  0  0  0  0  0
    9.5066   -3.3192    1.4193 O   0  0  0  1  0  0  0  0  0  0  0  0
    9.5575   -3.3210    2.3779 H   0  0  0  1  0  0  0  0  0  0  0  0
   14.1088   -6.7563   -0.8978 C   0  0  0  1  0  0  0  0  0  0  0  0
   14.7001   -6.8008    0.1801 O   0  0  0  1  0  0  0  0  0  0  0  0
   14.4563   -7.7082   -2.0258 C   0  0  0  1  0  0  0  0  0  0  0  0
   13.8460   -7.4908   -2.8774 H   0  0  0  1  0  0  0  0  0  0  0  0
   14.2809   -8.7151   -1.7093 H   0  0  0  1  0  0  0  0  0  0  0  0
   15.4873   -7.5903   -2.2868 H   0  0  0  1  0  0  0  0  0  0  0  0
  1  2  1  0  0  0  0
  1  3  1  0  0  0  0
  1  5  1  0  0  0  0
  1 18  1  0  0  0  0
  3  4  1  0  0  0  0
  5  6  1  0  0  0  0
  5  7  1  0  0  0  0
  5  9  1  0  0  0  0
  7  8  1  0  0  0  0
  9 10  1  0  0  0  0
  9 17  1  0  0  0  0
  9 20  1  0  0  0  0
 11 12  1  0  0  0  0
 11 13  1  0  0  0  0
 11 17  1  0  0  0  0
 11 18  1  0  0  0  0
 13 14  1  0  0  0  0
 15 16  1  0  0  0  0
 15 18  1  0  0  0  0
 15 25  1  0  0  0  0
 18 19  1  0  0  0  0
 20 21  1  0  0  0  0
 20 22  1  0  0  0  0
 20 23  1  0  0  0  0
 23 24  1  0  0  0  0
 25 26  2  0  0  0  0
 25 27  1  0  0  0  0
 27 28  1  0  0  0  0
 27 29  1  0  0  0  0
 27 30  1  0  0  0  0
M  END
> <ConfClashScore>
0.0407885 

> <ConfOneFourInteractionScore>
-0.953051 

> <ConfScore>
4.66591 

> <ConfScorePBest>
0.0131415 

> <ConfTolerance>
0.265805 

$$$$
L09.****
  PyMOL2.4          3D                             0

 30 30  0  0  0  0  0  0  0  0999 V2000
   11.9225   -5.2641   -0.1437 C   0  0  0  1  0  0  0  0  0  0  0  0
   11.9049   -6.0851   -0.8298 H   0  0  0  1  0  0  0  0  0  0  0  0
   12.0632   -5.9235    1.1173 O   0  0  0  1  0  0  0  0  0  0  0  0
   12.7820   -6.5580    1.0687 H   0  0  0  1  0  0  0  0  0  0  0  0
   11.1791   -4.9124   -0.0700 C   0  0  0  1  0  0  0  0  0  0  0  0
   10.5059   -5.3550   -0.7741 H   0  0  0  1  0  0  0  0  0  0  0  0
   10.6021   -5.3350    1.1631 O   0  0  0  1  0  0  0  0  0  0  0  0
   10.0720   -6.1217    1.0158 H   0  0  0  1  0  0  0  0  0  0  0  0
   11.1062   -4.0912   -0.1007 C   0  0  0  1  0  0  0  0  0  0  0  0
   10.5221   -3.7345    0.7218 H   0  0  0  1  0  0  0  0  0  0  0  0
   12.5191   -3.9726   -0.2788 C   0  0  0  1  0  0  0  0  0  0  0  0
   13.0189   -3.5933   -1.1456 H   0  0  0  1  0  0  0  0  0  0  0  0
   13.3365   -3.4792    0.7565 O   0  0  0  1  0  0  0  0  0  0  0  0
   14.2163   -3.3043    0.4144 H   0  0  0  1  0  0  0  0  0  0  0  0
   13.2332   -5.2315   -1.4924 N   0  0  0  1  0  0  0  0  0  0  0  0
   12.6873   -5.5835   -2.2262 H   0  0  0  1  0  0  0  0  0  0  0  0
   11.7768   -3.6217   -0.2052 O   0  0  0  1  0  0  0  0  0  0  0  0
   12.5919   -4.7938   -0.2481 C   0  0  0  1  0  0  0  0  0  0  0  0
   13.3378   -5.0632    0.4702 H   0  0  0  1  0  0  0  0  0  0  0  0
   10.2387   -3.6980   -1.2645 C   0  0  0  1  0  0  0  0  0  0  0  0
   10.1614   -2.6311   -1.2901 H   0  0  0  1  0  0  0  0  0  0  0  0
    9.2665   -4.1233   -1.1272 H   0  0  0  1  0  0  0  0  0  0  0  0
   10.7612   -4.1470   -2.5066 O   0  0  0  1  0  0  0  0  0  0  0  0
   10.1575   -3.9075   -3.2136 H   0  0  0  1  0  0  0  0  0  0  0  0
   14.6101   -5.1483   -1.6326 C   0  0  0  1  0  0  0  0  0  0  0  0
   15.2526   -4.5999   -0.7558 O   0  0  0  1  0  0  0  0  0  0  0  0
   15.2565   -5.7353   -2.8559 C   0  0  0  1  0  0  0  0  0  0  0  0
   16.3181   -5.6199   -2.7891 H   0  0  0  1  0  0  0  0  0  0  0  0
   14.8970   -5.2285   -3.7270 H   0  0  0  1  0  0  0  0  0  0  0  0
   15.0145   -6.7755   -2.9225 H   0  0  0  1  0  0  0  0  0  0  0  0
  1  2  1  0  0  0  0
  1  3  1  0  0  0  0
  1  5  1  0  0  0  0
  1 18  1  0  0  0  0
  3  4  1  0  0  0  0
  5  6  1  0  0  0  0
  5  7  1  0  0  0  0
  5  9  1  0  0  0  0
  7  8  1  0  0  0  0
  9 10  1  0  0  0  0
  9 17  1  0  0  0  0
  9 20  1  0  0  0  0
 11 12  1  0  0  0  0
 11 13  1  0  0  0  0
 11 17  1  0  0  0  0
 11 18  1  0  0  0  0
 13 14  1  0  0  0  0
 15 16  1  0  0  0  0
 15 18  1  0  0  0  0
 15 25  1  0  0  0  0
 18 19  1  0  0  0  0
 20 21  1  0  0  0  0
 20 22  1  0  0  0  0
 20 23  1  0  0  0  0
 23 24  1  0  0  0  0
 25 26  2  0  0  0  0
 25 27  1  0  0  0  0
 27 28  1  0  0  0  0
 27 29  1  0  0  0  0
 27 30  1  0  0  0  0
M  END
> <ConfClashScore>
0.0420301 

> <ConfOneFourInteractionScore>
-0.968695 

> <ConfScore>
4.69648 

> <ConfScorePBest>
0.0130385 

> <ConfTolerance>
0.497076 

$$$$
L09.****
  PyMOL2.4          3D                             0

 30 30  0  0  0  0  0  0  0  0999 V2000
   11.9995   -5.2415   -0.2164 C   0  0  0  1  0  0  0  0  0  0  0  0
   12.0287   -5.6750   -1.1943 H   0  0  0  1  0  0  0  0  0  0  0  0
   11.9177   -6.4069    0.6055 O   0  0  0  1  0  0  0  0  0  0  0  0
   12.1701   -7.1786    0.0933 H   0  0  0  1  0  0  0  0  0  0  0  0
   11.2780   -4.8570   -0.1008 C   0  0  0  1  0  0  0  0  0  0  0  0
   10.6380   -4.9810   -0.9492 H   0  0  0  1  0  0  0  0  0  0  0  0
   10.5725   -5.5749    0.9086 O   0  0  0  1  0  0  0  0  0  0  0  0
    9.9354   -6.1635    0.4972 H   0  0  0  1  0  0  0  0  0  0  0  0
   11.2644   -4.0771    0.1678 C   0  0  0  1  0  0  0  0  0  0  0  0
   10.6573   -4.0339    1.0478 H   0  0  0  1  0  0  0  0  0  0  0  0
   12.6929   -4.0652    0.2053 C   0  0  0  1  0  0  0  0  0  0  0  0
   13.3140   -3.9586    1.0700 H   0  0  0  1  0  0  0  0  0  0  0  0
   13.3943   -3.3075   -0.7468 O   0  0  0  1  0  0  0  0  0  0  0  0
   13.0767   -2.4016   -0.7327 H   0  0  0  1  0  0  0  0  0  0  0  0
   13.4652   -5.6488    0.9006 N   0  0  0  1  0  0  0  0  0  0  0  0
   13.1948   -5.6375    1.8425 H   0  0  0  1  0  0  0  0  0  0  0  0
   11.9724   -3.6816    0.3207 O   0  0  0  1  0  0  0  0  0  0  0  0
   12.7064   -4.8451   -0.0632 C   0  0  0  1  0  0  0  0  0  0  0  0
   13.3419   -4.9120   -0.9215 H   0  0  0  1  0  0  0  0  0  0  0  0
   10.5037   -3.1280   -0.7169 C   0  0  0  1  0  0  0  0  0  0  0  0
    9.4847   -3.4500   -0.7697 H   0  0  0  1  0  0  0  0  0  0  0  0
   10.9362   -3.1494   -1.6953 H   0  0  0  1  0  0  0  0  0  0  0  0
   10.5354   -1.7927   -0.2337 O   0  0  0  1  0  0  0  0  0  0  0  0
   10.9279   -1.2210   -0.8975 H   0  0  0  1  0  0  0  0  0  0  0  0
   14.5209   -6.4023    0.5362 C   0  0  0  1  0  0  0  0  0  0  0  0
   15.0280   -6.4017   -0.5848 O   0  0  0  1  0  0  0  0  0  0  0  0
   15.0556   -7.2814    1.6499 C   0  0  0  1  0  0  0  0  0  0  0  0
   16.0615   -6.9966    1.8781 H   0  0  0  1  0  0  0  0  0  0  0  0
   15.0373   -8.3044    1.3365 H   0  0  0  1  0  0  0  0  0  0  0  0
   14.4455   -7.1638    2.5210 H   0  0  0  1  0  0  0  0  0  0  0  0
  1  2  1  0  0  0  0
  1  3  1  0  0  0  0
  1  5  1  0  0  0  0
  1 18  1  0  0  0  0
  3  4  1  0  0  0  0
  5  6  1  0  0  0  0
  5  7  1  0  0  0  0
  5  9  1  0  0  0  0
  7  8  1  0  0  0  0
  9 10  1  0  0  0  0
  9 17  1  0  0  0  0
  9 20  1  0  0  0  0
 11 12  1  0  0  0  0
 11 13  1  0  0  0  0
 11 17  1  0  0  0  0
 11 18  1  0  0  0  0
 13 14  1  0  0  0  0
 15 16  1  0  0  0  0
 15 18  1  0  0  0  0
 15 25  1  0  0  0  0
 18 19  1  0  0  0  0
 20 21  1  0  0  0  0
 20 22  1  0  0  0  0
 20 23  1  0  0  0  0
 23 24  1  0  0  0  0
 25 26  2  0  0  0  0
 25 27  1  0  0  0  0
 27 28  1  0  0  0  0
 27 29  1  0  0  0  0
 27 30  1  0  0  0  0
M  END
> <ConfClashScore>
0.0416285 

> <ConfOneFourInteractionScore>
-0.968695 

> <ConfScore>
4.69785 

> <ConfScorePBest>
0.0129355 

> <ConfTolerance>
0.545898 

$$$$
L09.****
  PyMOL2.4          3D                             0

 30 30  0  0  0  0  0  0  0  0999 V2000
   11.9592   -5.3092   -0.1734 C   0  0  0  1  0  0  0  0  0  0  0  0
   11.9621   -6.1296   -0.8603 H   0  0  0  1  0  0  0  0  0  0  0  0
   12.2382   -5.9535    1.0723 O   0  0  0  1  0  0  0  0  0  0  0  0
   12.8413   -6.6861    0.9261 H   0  0  0  1  0  0  0  0  0  0  0  0
   11.2056   -4.9813   -0.0934 C   0  0  0  1  0  0  0  0  0  0  0  0
   10.5157   -5.4655   -0.7526 H   0  0  0  1  0  0  0  0  0  0  0  0
   10.7489   -5.4281    1.1808 O   0  0  0  1  0  0  0  0  0  0  0  0
    9.8063   -5.2639    1.2590 H   0  0  0  1  0  0  0  0  0  0  0  0
   11.1065   -4.1628   -0.1230 C   0  0  0  1  0  0  0  0  0  0  0  0
   10.4960   -3.8179    0.6853 H   0  0  0  1  0  0  0  0  0  0  0  0
   12.5134   -3.9993   -0.3124 C   0  0  0  1  0  0  0  0  0  0  0  0
   13.0739   -3.5478   -1.1042 H   0  0  0  1  0  0  0  0  0  0  0  0
   13.1661   -3.5504    0.8317 O   0  0  0  1  0  0  0  0  0  0  0  0
   14.0577   -3.2760    0.6051 H   0  0  0  1  0  0  0  0  0  0  0  0
   13.2268   -5.1969   -1.5465 N   0  0  0  1  0  0  0  0  0  0  0  0
   12.9472   -4.7107   -2.3501 H   0  0  0  1  0  0  0  0  0  0  0  0
   11.7610   -3.6722   -0.2325 O   0  0  0  1  0  0  0  0  0  0  0  0
   12.6126   -4.8177   -0.2829 C   0  0  0  1  0  0  0  0  0  0  0  0
   13.3866   -5.0716    0.4109 H   0  0  0  1  0  0  0  0  0  0  0  0
   10.2511   -3.8082   -1.3151 C   0  0  0  1  0  0  0  0  0  0  0  0
    9.3324   -4.3547   -1.2688 H   0  0  0  1  0  0  0  0  0  0  0  0
   10.7722   -4.0612   -2.2147 H   0  0  0  1  0  0  0  0  0  0  0  0
    9.9727   -2.4154   -1.3066 O   0  0  0  1  0  0  0  0  0  0  0  0
    9.1070   -2.2593   -1.6911 H   0  0  0  1  0  0  0  0  0  0  0  0
   14.1523   -6.1673   -1.6950 C   0  0  0  1  0  0  0  0  0  0  0  0
   14.5205   -6.8459   -0.7377 O   0  0  0  1  0  0  0  0  0  0  0  0
   14.7272   -6.3983   -3.0790 C   0  0  0  1  0  0  0  0  0  0  0  0
   15.1968   -5.5013   -3.4250 H   0  0  0  1  0  0  0  0  0  0  0  0
   13.9402   -6.6706   -3.7509 H   0  0  0  1  0  0  0  0  0  0  0  0
   15.4501   -7.1860   -3.0377 H   0  0  0  1  0  0  0  0  0  0  0  0
  1  2  1  0  0  0  0
  1  3  1  0  0  0  0
  1  5  1  0  0  0  0
  1 18  1  0  0  0  0
  3  4  1  0  0  0  0
  5  6  1  0  0  0  0
  5  7  1  0  0  0  0
  5  9  1  0  0  0  0
  7  8  1  0  0  0  0
  9 10  1  0  0  0  0
  9 17  1  0  0  0  0
  9 20  1  0  0  0  0
 11 12  1  0  0  0  0
 11 13  1  0  0  0  0
 11 17  1  0  0  0  0
 11 18  1  0  0  0  0
 13 14  1  0  0  0  0
 15 16  1  0  0  0  0
 15 18  1  0  0  0  0
 15 25  1  0  0  0  0
 18 19  1  0  0  0  0
 20 21  1  0  0  0  0
 20 22  1  0  0  0  0
 20 23  1  0  0  0  0
 23 24  1  0  0  0  0
 25 26  2  0  0  0  0
 25 27  1  0  0  0  0
 27 28  1  0  0  0  0
 27 29  1  0  0  0  0
 27 30  1  0  0  0  0
M  END
> <ConfClashScore>
0.0419413 

> <ConfOneFourInteractionScore>
-0.957877 

> <ConfScore>
4.70621 

> <ConfScorePBest>
0.0128325 

> <ConfTolerance>
0.498953 

$$$$
L09.****
  PyMOL2.4          3D                             0

 30 30  0  0  0  0  0  0  0  0999 V2000
   11.9578   -5.3851    0.2329 C   0  0  0  1  0  0  0  0  0  0  0  0
   11.9401   -6.4072   -0.0832 H   0  0  0  1  0  0  0  0  0  0  0  0
   12.2563   -5.5095    1.6257 O   0  0  0  1  0  0  0  0  0  0  0  0
   12.1073   -4.6674    2.0619 H   0  0  0  1  0  0  0  0  0  0  0  0
   11.2085   -5.0430    0.1758 C   0  0  0  1  0  0  0  0  0  0  0  0
   10.7289   -5.0453    1.1323 H   0  0  0  1  0  0  0  0  0  0  0  0
   10.3546   -5.9052   -0.5721 O   0  0  0  1  0  0  0  0  0  0  0  0
   10.6100   -5.8853   -1.4973 H   0  0  0  1  0  0  0  0  0  0  0  0
   11.1173   -4.3071   -0.1859 C   0  0  0  1  0  0  0  0  0  0  0  0
   10.3150   -4.3220   -0.8938 H   0  0  0  1  0  0  0  0  0  0  0  0
   12.5237   -4.2547   -0.4338 C   0  0  0  1  0  0  0  0  0  0  0  0
   13.0185   -4.2377   -1.3823 H   0  0  0  1  0  0  0  0  0  0  0  0
   13.3293   -3.4017    0.3292 O   0  0  0  1  0  0  0  0  0  0  0  0
   13.8049   -2.8046   -0.2529 H   0  0  0  1  0  0  0  0  0  0  0  0
   13.3035   -5.8352   -1.0365 N   0  0  0  1  0  0  0  0  0  0  0  0
   12.7749   -6.4401   -1.5979 H   0  0  0  1  0  0  0  0  0  0  0  0
   11.7755   -3.9134   -0.4906 O   0  0  0  1  0  0  0  0  0  0  0  0
   12.6148   -4.9906   -0.0720 C   0  0  0  1  0  0  0  0  0  0  0  0
   13.3606   -4.9137    0.6914 H   0  0  0  1  0  0  0  0  0  0  0  0
   10.6023   -3.3091    0.8263 C   0  0  0  1  0  0  0  0  0  0  0  0
   11.3120   -3.2311    1.6232 H   0  0  0  1  0  0  0  0  0  0  0  0
    9.6690   -3.6623    1.2124 H   0  0  0  1  0  0  0  0  0  0  0  0
   10.4044   -2.0197    0.2644 O   0  0  0  1  0  0  0  0  0  0  0  0
   11.0450   -1.8733   -0.4354 H   0  0  0  1  0  0  0  0  0  0  0  0
   14.6313   -5.8147   -1.1833 C   0  0  0  1  0  0  0  0  0  0  0  0
   15.3385   -4.9405   -0.7099 O   0  0  0  1  0  0  0  0  0  0  0  0
   15.2232   -6.9577   -1.9848 C   0  0  0  1  0  0  0  0  0  0  0  0
   15.4665   -7.7663   -1.3277 H   0  0  0  1  0  0  0  0  0  0  0  0
   16.1098   -6.6230   -2.4816 H   0  0  0  1  0  0  0  0  0  0  0  0
   14.5109   -7.2903   -2.7107 H   0  0  0  1  0  0  0  0  0  0  0  0
  1  2  1  0  0  0  0
  1  3  1  0  0  0  0
  1  5  1  0  0  0  0
  1 18  1  0  0  0  0
  3  4  1  0  0  0  0
  5  6  1  0  0  0  0
  5  7  1  0  0  0  0
  5  9  1  0  0  0  0
  7  8  1  0  0  0  0
  9 10  1  0  0  0  0
  9 17  1  0  0  0  0
  9 20  1  0  0  0  0
 11 12  1  0  0  0  0
 11 13  1  0  0  0  0
 11 17  1  0  0  0  0
 11 18  1  0  0  0  0
 13 14  1  0  0  0  0
 15 16  1  0  0  0  0
 15 18  1  0  0  0  0
 15 25  1  0  0  0  0
 18 19  1  0  0  0  0
 20 21  1  0  0  0  0
 20 22  1  0  0  0  0
 20 23  1  0  0  0  0
 23 24  1  0  0  0  0
 25 26  2  0  0  0  0
 25 27  1  0  0  0  0
 27 28  1  0  0  0  0
 27 29  1  0  0  0  0
 27 30  1  0  0  0  0
M  END
> <ConfClashScore>
0.0420105 

> <ConfOneFourInteractionScore>
-0.968695 

> <ConfScore>
4.71799 

> <ConfScorePBest>
0.0127295 

> <ConfTolerance>
0.402466 

$$$$
L09.****
  PyMOL2.4          3D                             0

 30 30  0  0  0  0  0  0  0  0999 V2000
   12.0750   -5.2449    0.2633 C   0  0  0  1  0  0  0  0  0  0  0  0
   12.2587   -5.5240    1.2798 H   0  0  0  1  0  0  0  0  0  0  0  0
   11.9691   -6.5256   -0.3638 O   0  0  0  1  0  0  0  0  0  0  0  0
   11.7248   -7.1838    0.2909 H   0  0  0  1  0  0  0  0  0  0  0  0
   11.3325   -4.8892    0.2007 C   0  0  0  1  0  0  0  0  0  0  0  0
   10.8498   -4.8698    1.1554 H   0  0  0  1  0  0  0  0  0  0  0  0
   10.5181   -5.8168   -0.5122 O   0  0  0  1  0  0  0  0  0  0  0  0
    9.6566   -5.8753   -0.0926 H   0  0  0  1  0  0  0  0  0  0  0  0
   11.2555   -4.1577   -0.1730 C   0  0  0  1  0  0  0  0  0  0  0  0
   10.4534   -4.1691   -0.8811 H   0  0  0  1  0  0  0  0  0  0  0  0
   12.6626   -4.1367   -0.4216 C   0  0  0  1  0  0  0  0  0  0  0  0
   13.1679   -4.1347   -1.3648 H   0  0  0  1  0  0  0  0  0  0  0  0
   13.3703   -3.1775    0.2936 O   0  0  0  1  0  0  0  0  0  0  0  0
   13.2326   -2.3148   -0.1043 H   0  0  0  1  0  0  0  0  0  0  0  0
   13.7455   -4.7866    1.0350 N   0  0  0  1  0  0  0  0  0  0  0  0
   13.4745   -4.5060    1.9340 H   0  0  0  1  0  0  0  0  0  0  0  0
   11.9212   -3.7819   -0.4840 O   0  0  0  1  0  0  0  0  0  0  0  0
   12.7395   -4.8682   -0.0479 C   0  0  0  1  0  0  0  0  0  0  0  0
   13.2331   -5.5428   -0.7159 H   0  0  0  1  0  0  0  0  0  0  0  0
   10.7630   -3.1388    0.8176 C   0  0  0  1  0  0  0  0  0  0  0  0
   11.5045   -2.9917    1.5749 H   0  0  0  1  0  0  0  0  0  0  0  0
    9.8575   -3.4890    1.2675 H   0  0  0  1  0  0  0  0  0  0  0  0
   10.5150   -1.9077    0.1541 O   0  0  0  1  0  0  0  0  0  0  0  0
   10.9899   -1.2022    0.5996 H   0  0  0  1  0  0  0  0  0  0  0  0
   15.0276   -5.0959    0.7882 C   0  0  0  1  0  0  0  0  0  0  0  0
   15.3968   -5.4232   -0.3388 O   0  0  0  1  0  0  0  0  0  0  0  0
   16.0024   -5.0311    1.9303 C   0  0  0  1  0  0  0  0  0  0  0  0
   15.5172   -4.6211    2.7913 H   0  0  0  1  0  0  0  0  0  0  0  0
   16.8298   -4.4098    1.6578 H   0  0  0  1  0  0  0  0  0  0  0  0
   16.3543   -6.0164    2.1548 H   0  0  0  1  0  0  0  0  0  0  0  0
  1  2  1  0  0  0  0
  1  3  1  0  0  0  0
  1  5  1  0  0  0  0
  1 18  1  0  0  0  0
  3  4  1  0  0  0  0
  5  6  1  0  0  0  0
  5  7  1  0  0  0  0
  5  9  1  0  0  0  0
  7  8  1  0  0  0  0
  9 10  1  0  0  0  0
  9 17  1  0  0  0  0
  9 20  1  0  0  0  0
 11 12  1  0  0  0  0
 11 13  1  0  0  0  0
 11 17  1  0  0  0  0
 11 18  1  0  0  0  0
 13 14  1  0  0  0  0
 15 16  1  0  0  0  0
 15 18  1  0  0  0  0
 15 25  1  0  0  0  0
 18 19  1  0  0  0  0
 20 21  1  0  0  0  0
 20 22  1  0  0  0  0
 20 23  1  0  0  0  0
 23 24  1  0  0  0  0
 25 26  2  0  0  0  0
 25 27  1  0  0  0  0
 27 28  1  0  0  0  0
 27 29  1  0  0  0  0
 27 30  1  0  0  0  0
M  END
> <ConfClashScore>
0.0422844 

> <ConfOneFourInteractionScore>
-0.957877 

> <ConfScore>
4.74943 

> <ConfScorePBest>
0.0126265 

> <ConfTolerance>
0.25 

$$$$
L09.****
  PyMOL2.4          3D                             0

 30 30  0  0  0  0  0  0  0  0999 V2000
   12.0306   -5.1401    0.3633 C   0  0  0  1  0  0  0  0  0  0  0  0
   12.0208   -5.6992    1.2756 H   0  0  0  1  0  0  0  0  0  0  0  0
   12.2016   -6.1707   -0.6131 O   0  0  0  1  0  0  0  0  0  0  0  0
   11.9537   -7.0166   -0.2330 H   0  0  0  1  0  0  0  0  0  0  0  0
   11.2964   -4.7891    0.2238 C   0  0  0  1  0  0  0  0  0  0  0  0
   10.6059   -5.0223    1.0071 H   0  0  0  1  0  0  0  0  0  0  0  0
   10.7673   -5.5342   -0.8678 O   0  0  0  1  0  0  0  0  0  0  0  0
   10.2020   -6.2345   -0.5336 H   0  0  0  1  0  0  0  0  0  0  0  0
   11.2528   -3.9909    0.0198 C   0  0  0  1  0  0  0  0  0  0  0  0
   10.6496   -3.8661   -0.8551 H   0  0  0  1  0  0  0  0  0  0  0  0
   12.6766   -3.8940    0.0945 C   0  0  0  1  0  0  0  0  0  0  0  0
   13.3069   -3.2843    0.7076 H   0  0  0  1  0  0  0  0  0  0  0  0
   13.3227   -3.8563   -1.1522 O   0  0  0  1  0  0  0  0  0  0  0  0
   12.7380   -4.2090   -1.8270 H   0  0  0  1  0  0  0  0  0  0  0  0
   13.3751   -4.7675    1.5959 N   0  0  0  1  0  0  0  0  0  0  0  0
   12.9638   -4.3128    2.3604 H   0  0  0  1  0  0  0  0  0  0  0  0
   11.9434   -3.5438   -0.0447 O   0  0  0  1  0  0  0  0  0  0  0  0
   12.7202   -4.6921    0.2985 C   0  0  0  1  0  0  0  0  0  0  0  0
   13.4304   -5.1946   -0.3243 H   0  0  0  1  0  0  0  0  0  0  0  0
   10.4349   -3.2328    1.0398 C   0  0  0  1  0  0  0  0  0  0  0  0
   10.4750   -2.1862    0.8210 H   0  0  0  1  0  0  0  0  0  0  0  0
   10.8333   -3.4090    2.0171 H   0  0  0  1  0  0  0  0  0  0  0  0
    9.0815   -3.6745    0.9935 O   0  0  0  1  0  0  0  0  0  0  0  0
    8.7600   -3.8163    1.8868 H   0  0  0  1  0  0  0  0  0  0  0  0
   14.5289   -5.4414    1.7828 C   0  0  0  1  0  0  0  0  0  0  0  0
   15.0508   -6.0744    0.8659 O   0  0  0  1  0  0  0  0  0  0  0  0
   15.1658   -5.3967    3.1581 C   0  0  0  1  0  0  0  0  0  0  0  0
   15.5233   -4.4075    3.3542 H   0  0  0  1  0  0  0  0  0  0  0  0
   15.9842   -6.0851    3.1944 H   0  0  0  1  0  0  0  0  0  0  0  0
   14.4395   -5.6661    3.8962 H   0  0  0  1  0  0  0  0  0  0  0  0
  1  2  1  0  0  0  0
  1  3  1  0  0  0  0
  1  5  1  0  0  0  0
  1 18  1  0  0  0  0
  3  4  1  0  0  0  0
  5  6  1  0  0  0  0
  5  7  1  0  0  0  0
  5  9  1  0  0  0  0
  7  8  1  0  0  0  0
  9 10  1  0  0  0  0
  9 17  1  0  0  0  0
  9 20  1  0  0  0  0
 11 12  1  0  0  0  0
 11 13  1  0  0  0  0
 11 17  1  0  0  0  0
 11 18  1  0  0  0  0
 13 14  1  0  0  0  0
 15 16  1  0  0  0  0
 15 18  1  0  0  0  0
 15 25  1  0  0  0  0
 18 19  1  0  0  0  0
 20 21  1  0  0  0  0
 20 22  1  0  0  0  0
 20 23  1  0  0  0  0
 23 24  1  0  0  0  0
 25 26  2  0  0  0  0
 25 27  1  0  0  0  0
 27 28  1  0  0  0  0
 27 29  1  0  0  0  0
 27 30  1  0  0  0  0
M  END
> <ConfClashScore>
0.040506 

> <ConfOneFourInteractionScore>
-0.95717 

> <ConfScore>
4.75014 

> <ConfScorePBest>
0.0125235 

> <ConfTolerance>
0.425509 

$$$$
L09.****
  PyMOL2.4          3D                             0

 30 30  0  0  0  0  0  0  0  0999 V2000
   12.0902   -5.3225   -0.1309 C   0  0  0  1  0  0  0  0  0  0  0  0
   12.1180   -6.2021   -0.7397 H   0  0  0  1  0  0  0  0  0  0  0  0
   12.2841   -5.8613    1.1793 O   0  0  0  1  0  0  0  0  0  0  0  0
   11.9996   -6.7780    1.1943 H   0  0  0  1  0  0  0  0  0  0  0  0
   11.3405   -4.9767   -0.1417 C   0  0  0  1  0  0  0  0  0  0  0  0
   10.6913   -5.5212   -0.7951 H   0  0  0  1  0  0  0  0  0  0  0  0
   10.7413   -5.2246    1.1277 O   0  0  0  1  0  0  0  0  0  0  0  0
    9.7935   -5.0846    1.0675 H   0  0  0  1  0  0  0  0  0  0  0  0
   11.2620   -4.1658   -0.2718 C   0  0  0  1  0  0  0  0  0  0  0  0
   10.6475   -3.7317    0.4890 H   0  0  0  1  0  0  0  0  0  0  0  0
   12.6818   -4.0457   -0.3805 C   0  0  0  1  0  0  0  0  0  0  0  0
   13.2610   -3.7340   -1.2244 H   0  0  0  1  0  0  0  0  0  0  0  0
   13.3435   -3.4353    0.6750 O   0  0  0  1  0  0  0  0  0  0  0  0
   12.7018   -3.1154    1.3135 H   0  0  0  1  0  0  0  0  0  0  0  0
   13.3217   -5.3994   -1.5098 N   0  0  0  1  0  0  0  0  0  0  0  0
   13.0466   -4.9997   -2.3612 H   0  0  0  1  0  0  0  0  0  0  0  0
   11.9331   -3.7008   -0.3912 O   0  0  0  1  0  0  0  0  0  0  0  0
   12.7603   -4.8566   -0.2504 C   0  0  0  1  0  0  0  0  0  0  0  0
   13.5350   -5.0778    0.4538 H   0  0  0  1  0  0  0  0  0  0  0  0
   10.4226   -3.9045   -1.4893 C   0  0  0  1  0  0  0  0  0  0  0  0
   10.3716   -2.8505   -1.6664 H   0  0  0  1  0  0  0  0  0  0  0  0
    9.4365   -4.2882   -1.3304 H   0  0  0  1  0  0  0  0  0  0  0  0
   11.0025   -4.5451   -2.6166 O   0  0  0  1  0  0  0  0  0  0  0  0
   10.4190   -4.4524   -3.3732 H   0  0  0  1  0  0  0  0  0  0  0  0
   14.1985   -6.4248   -1.5251 C   0  0  0  1  0  0  0  0  0  0  0  0
   14.5650   -6.9631   -0.4813 O   0  0  0  1  0  0  0  0  0  0  0  0
   14.7192   -6.8948   -2.8644 C   0  0  0  1  0  0  0  0  0  0  0  0
   15.7513   -6.6292   -2.9595 H   0  0  0  1  0  0  0  0  0  0  0  0
   14.1580   -6.4302   -3.6480 H   0  0  0  1  0  0  0  0  0  0  0  0
   14.6169   -7.9577   -2.9335 H   0  0  0  1  0  0  0  0  0  0  0  0
  1  2  1  0  0  0  0
  1  3  1  0  0  0  0
  1  5  1  0  0  0  0
  1 18  1  0  0  0  0
  3  4  1  0  0  0  0
  5  6  1  0  0  0  0
  5  7  1  0  0  0  0
  5  9  1  0  0  0  0
  7  8  1  0  0  0  0
  9 10  1  0  0  0  0
  9 17  1  0  0  0  0
  9 20  1  0  0  0  0
 11 12  1  0  0  0  0
 11 13  1  0  0  0  0
 11 17  1  0  0  0  0
 11 18  1  0  0  0  0
 13 14  1  0  0  0  0
 15 16  1  0  0  0  0
 15 18  1  0  0  0  0
 15 25  1  0  0  0  0
 18 19  1  0  0  0  0
 20 21  1  0  0  0  0
 20 22  1  0  0  0  0
 20 23  1  0  0  0  0
 23 24  1  0  0  0  0
 25 26  2  0  0  0  0
 25 27  1  0  0  0  0
 27 28  1  0  0  0  0
 27 29  1  0  0  0  0
 27 30  1  0  0  0  0
M  END
> <ConfClashScore>
0.0426098 

> <ConfOneFourInteractionScore>
-0.967492 

> <ConfScore>
4.77151 

> <ConfScorePBest>
0.0124205 

> <ConfTolerance>
0.542428 

$$$$
L09.****
  PyMOL2.4          3D                             0

 30 30  0  0  0  0  0  0  0  0999 V2000
   12.0224   -5.2310    0.4135 C   0  0  0  1  0  0  0  0  0  0  0  0
   12.0642   -5.7600    1.3426 H   0  0  0  1  0  0  0  0  0  0  0  0
   12.0316   -6.2951   -0.5441 O   0  0  0  1  0  0  0  0  0  0  0  0
   12.7214   -6.9234   -0.3182 H   0  0  0  1  0  0  0  0  0  0  0  0
   11.2853   -4.8775    0.2969 C   0  0  0  1  0  0  0  0  0  0  0  0
   10.6633   -5.0272    1.1546 H   0  0  0  1  0  0  0  0  0  0  0  0
   10.6228   -5.6774   -0.6794 O   0  0  0  1  0  0  0  0  0  0  0  0
    9.6891   -5.4548   -0.6960 H   0  0  0  1  0  0  0  0  0  0  0  0
   11.2390   -4.0935    0.0440 C   0  0  0  1  0  0  0  0  0  0  0  0
   10.5536   -3.9911   -0.7713 H   0  0  0  1  0  0  0  0  0  0  0  0
   12.6657   -4.0157    0.0241 C   0  0  0  1  0  0  0  0  0  0  0  0
   13.3575   -3.3751    0.5301 H   0  0  0  1  0  0  0  0  0  0  0  0
   13.1970   -4.1018   -1.2693 O   0  0  0  1  0  0  0  0  0  0  0  0
   12.7892   -3.4362   -1.8282 H   0  0  0  1  0  0  0  0  0  0  0  0
   13.4478   -4.8017    1.5364 N   0  0  0  1  0  0  0  0  0  0  0  0
   12.9655   -4.7094    2.3845 H   0  0  0  1  0  0  0  0  0  0  0  0
   11.9297   -3.6631   -0.0922 O   0  0  0  1  0  0  0  0  0  0  0  0
   12.7120   -4.7996    0.2769 C   0  0  0  1  0  0  0  0  0  0  0  0
   13.3757   -5.3531   -0.3540 H   0  0  0  1  0  0  0  0  0  0  0  0
   10.5616   -3.2606    1.1085 C   0  0  0  1  0  0  0  0  0  0  0  0
    9.5772   -3.6468    1.2718 H   0  0  0  1  0  0  0  0  0  0  0  0
   10.4961   -2.2498    0.7635 H   0  0  0  1  0  0  0  0  0  0  0  0
   11.2683   -3.2767    2.3418 O   0  0  0  1  0  0  0  0  0  0  0  0
   11.2119   -4.1520    2.7320 H   0  0  0  1  0  0  0  0  0  0  0  0
   14.7841   -4.9298    1.5362 C   0  0  0  1  0  0  0  0  0  0  0  0
   15.4371   -5.1365    0.5141 O   0  0  0  1  0  0  0  0  0  0  0  0
   15.4581   -4.8039    2.8886 C   0  0  0  1  0  0  0  0  0  0  0  0
   16.3801   -5.3467    2.8801 H   0  0  0  1  0  0  0  0  0  0  0  0
   14.8161   -5.2037    3.6454 H   0  0  0  1  0  0  0  0  0  0  0  0
   15.6537   -3.7723    3.0946 H   0  0  0  1  0  0  0  0  0  0  0  0
  1  2  1  0  0  0  0
  1  3  1  0  0  0  0
  1  5  1  0  0  0  0
  1 18  1  0  0  0  0
  3  4  1  0  0  0  0
  5  6  1  0  0  0  0
  5  7  1  0  0  0  0
  5  9  1  0  0  0  0
  7  8  1  0  0  0  0
  9 10  1  0  0  0  0
  9 17  1  0  0  0  0
  9 20  1  0  0  0  0
 11 12  1  0  0  0  0
 11 13  1  0  0  0  0
 11 17  1  0  0  0  0
 11 18  1  0  0  0  0
 13 14  1  0  0  0  0
 15 16  1  0  0  0  0
 15 18  1  0  0  0  0
 15 25  1  0  0  0  0
 18 19  1  0  0  0  0
 20 21  1  0  0  0  0
 20 22  1  0  0  0  0
 20 23  1  0  0  0  0
 23 24  1  0  0  0  0
 25 26  2  0  0  0  0
 25 27  1  0  0  0  0
 27 28  1  0  0  0  0
 27 29  1  0  0  0  0
 27 30  1  0  0  0  0
M  END
> <ConfClashScore>
0.0423273 

> <ConfOneFourInteractionScore>
-0.968695 

> <ConfScore>
4.78045 

> <ConfScorePBest>
0.0123175 

> <ConfTolerance>
0.567064 

$$$$
L09.****
  PyMOL2.4          3D                             0

 30 30  0  0  0  0  0  0  0  0999 V2000
   11.9352   -5.2909    0.1505 C   0  0  0  1  0  0  0  0  0  0  0  0
   11.8370   -6.2534   -0.3066 H   0  0  0  1  0  0  0  0  0  0  0  0
   12.2691   -5.6470    1.4945 O   0  0  0  1  0  0  0  0  0  0  0  0
   12.9231   -6.3497    1.4868 H   0  0  0  1  0  0  0  0  0  0  0  0
   11.2088   -4.8982    0.1456 C   0  0  0  1  0  0  0  0  0  0  0  0
   10.6697   -5.0290    1.0605 H   0  0  0  1  0  0  0  0  0  0  0  0
   10.3867   -5.5745   -0.8024 O   0  0  0  1  0  0  0  0  0  0  0  0
    9.8196   -6.2003   -0.3460 H   0  0  0  1  0  0  0  0  0  0  0  0
   11.1593   -4.1258   -0.1400 C   0  0  0  1  0  0  0  0  0  0  0  0
   10.3689   -4.0478   -0.8570 H   0  0  0  1  0  0  0  0  0  0  0  0
   12.5614   -4.1378   -0.4159 C   0  0  0  1  0  0  0  0  0  0  0  0
   13.0821   -4.0226   -1.3435 H   0  0  0  1  0  0  0  0  0  0  0  0
   13.3094   -3.3564    0.4547 O   0  0  0  1  0  0  0  0  0  0  0  0
   13.7677   -2.6737   -0.0408 H   0  0  0  1  0  0  0  0  0  0  0  0
   13.0967   -5.6525   -1.3020 N   0  0  0  1  0  0  0  0  0  0  0  0
   12.5915   -5.5313   -2.1329 H   0  0  0  1  0  0  0  0  0  0  0  0
   11.8361   -3.7461   -0.4207 O   0  0  0  1  0  0  0  0  0  0  0  0
   12.6109   -4.9102   -0.1303 C   0  0  0  1  0  0  0  0  0  0  0  0
   13.4287   -5.0197    0.5510 H   0  0  0  1  0  0  0  0  0  0  0  0
   10.6587   -3.2024    0.9365 C   0  0  0  1  0  0  0  0  0  0  0  0
   10.9452   -3.5735    1.8983 H   0  0  0  1  0  0  0  0  0  0  0  0
    9.5926   -3.1266    0.8859 H   0  0  0  1  0  0  0  0  0  0  0  0
   11.2482   -1.9252    0.7127 O   0  0  0  1  0  0  0  0  0  0  0  0
   10.5814   -1.3176    0.3844 H   0  0  0  1  0  0  0  0  0  0  0  0
   14.1592   -6.4817   -1.3636 C   0  0  0  1  0  0  0  0  0  0  0  0
   14.8617   -6.6892   -0.3751 O   0  0  0  1  0  0  0  0  0  0  0  0
   14.4640   -7.1525   -2.6889 C   0  0  0  1  0  0  0  0  0  0  0  0
   13.6113   -7.7136   -3.0096 H   0  0  0  1  0  0  0  0  0  0  0  0
   15.2999   -7.8100   -2.5717 H   0  0  0  1  0  0  0  0  0  0  0  0
   14.6959   -6.4070   -3.4207 H   0  0  0  1  0  0  0  0  0  0  0  0
  1  2  1  0  0  0  0
  1  3  1  0  0  0  0
  1  5  1  0  0  0  0
  1 18  1  0  0  0  0
  3  4  1  0  0  0  0
  5  6  1  0  0  0  0
  5  7  1  0  0  0  0
  5  9  1  0  0  0  0
  7  8  1  0  0  0  0
  9 10  1  0  0  0  0
  9 17  1  0  0  0  0
  9 20  1  0  0  0  0
 11 12  1  0  0  0  0
 11 13  1  0  0  0  0
 11 17  1  0  0  0  0
 11 18  1  0  0  0  0
 13 14  1  0  0  0  0
 15 16  1  0  0  0  0
 15 18  1  0  0  0  0
 15 25  1  0  0  0  0
 18 19  1  0  0  0  0
 20 21  1  0  0  0  0
 20 22  1  0  0  0  0
 20 23  1  0  0  0  0
 23 24  1  0  0  0  0
 25 26  2  0  0  0  0
 25 27  1  0  0  0  0
 27 28  1  0  0  0  0
 27 29  1  0  0  0  0
 27 30  1  0  0  0  0
M  END
> <ConfClashScore>
0.0408325 

> <ConfOneFourInteractionScore>
-0.973521 

> <ConfScore>
4.78857 

> <ConfScorePBest>
0.0122145 

> <ConfTolerance>
0.556677 

$$$$
L09.****
  PyMOL2.4          3D                             0

 30 30  0  0  0  0  0  0  0  0999 V2000
   12.0610   -5.3206    0.0912 C   0  0  0  1  0  0  0  0  0  0  0  0
   12.0246   -6.3230   -0.2815 H   0  0  0  1  0  0  0  0  0  0  0  0
   12.2510   -5.5235    1.4938 O   0  0  0  1  0  0  0  0  0  0  0  0
   12.4031   -6.4558    1.6651 H   0  0  0  1  0  0  0  0  0  0  0  0
   11.3183   -4.9604    0.0703 C   0  0  0  1  0  0  0  0  0  0  0  0
   10.8590   -5.0213    1.0348 H   0  0  0  1  0  0  0  0  0  0  0  0
   10.4566   -5.7923   -0.7026 O   0  0  0  1  0  0  0  0  0  0  0  0
    9.5433   -5.6165   -0.4646 H   0  0  0  1  0  0  0  0  0  0  0  0
   11.2388   -4.1959   -0.2293 C   0  0  0  1  0  0  0  0  0  0  0  0
   10.4517   -4.1611   -0.9534 H   0  0  0  1  0  0  0  0  0  0  0  0
   12.6435   -4.1509   -0.4874 C   0  0  0  1  0  0  0  0  0  0  0  0
   13.1888   -4.0119   -1.3975 H   0  0  0  1  0  0  0  0  0  0  0  0
   13.3675   -3.3919    0.4311 O   0  0  0  1  0  0  0  0  0  0  0  0
   12.9686   -2.5226    0.5136 H   0  0  0  1  0  0  0  0  0  0  0  0
   13.3096   -5.7982   -1.2613 N   0  0  0  1  0  0  0  0  0  0  0  0
   14.1246   -6.3053   -1.0637 H   0  0  0  1  0  0  0  0  0  0  0  0
   11.9019   -3.7915   -0.5081 O   0  0  0  1  0  0  0  0  0  0  0  0
   12.7231   -4.9154   -0.1877 C   0  0  0  1  0  0  0  0  0  0  0  0
   13.5041   -4.9430    0.5431 H   0  0  0  1  0  0  0  0  0  0  0  0
   10.7145   -3.2422    0.8054 C   0  0  0  1  0  0  0  0  0  0  0  0
    9.7423   -3.5589    1.1208 H   0  0  0  1  0  0  0  0  0  0  0  0
   10.6513   -2.2605    0.3847 H   0  0  0  1  0  0  0  0  0  0  0  0
   11.5899   -3.2212    1.9237 O   0  0  0  1  0  0  0  0  0  0  0  0
   11.4237   -3.9891    2.4753 H   0  0  0  1  0  0  0  0  0  0  0  0
   12.7524   -5.9136   -2.4813 C   0  0  0  1  0  0  0  0  0  0  0  0
   11.7627   -5.2742   -2.8276 O   0  0  0  1  0  0  0  0  0  0  0  0
   13.4250   -6.8939   -3.4225 C   0  0  0  1  0  0  0  0  0  0  0  0
   12.6892   -7.3416   -4.0574 H   0  0  0  1  0  0  0  0  0  0  0  0
   13.9153   -7.6556   -2.8530 H   0  0  0  1  0  0  0  0  0  0  0  0
   14.1451   -6.3763   -4.0212 H   0  0  0  1  0  0  0  0  0  0  0  0
  1  2  1  0  0  0  0
  1  3  1  0  0  0  0
  1  5  1  0  0  0  0
  1 18  1  0  0  0  0
  3  4  1  0  0  0  0
  5  6  1  0  0  0  0
  5  7  1  0  0  0  0
  5  9  1  0  0  0  0
  7  8  1  0  0  0  0
  9 10  1  0  0  0  0
  9 17  1  0  0  0  0
  9 20  1  0  0  0  0
 11 12  1  0  0  0  0
 11 13  1  0  0  0  0
 11 17  1  0  0  0  0
 11 18  1  0  0  0  0
 13 14  1  0  0  0  0
 15 16  1  0  0  0  0
 15 18  1  0  0  0  0
 15 25  1  0  0  0  0
 18 19  1  0  0  0  0
 20 21  1  0  0  0  0
 20 22  1  0  0  0  0
 20 23  1  0  0  0  0
 23 24  1  0  0  0  0
 25 26  2  0  0  0  0
 25 27  1  0  0  0  0
 27 28  1  0  0  0  0
 27 29  1  0  0  0  0
 27 30  1  0  0  0  0
M  END
> <ConfClashScore>
0.0422572 

> <ConfOneFourInteractionScore>
-0.971491 

> <ConfScore>
4.79555 

> <ConfScorePBest>
0.0121115 

> <ConfTolerance>
0.508574 

$$$$
L09.****
  PyMOL2.4          3D                             0

 30 30  0  0  0  0  0  0  0  0999 V2000
   11.9638   -5.3569    0.1115 C   0  0  0  1  0  0  0  0  0  0  0  0
   11.8942   -6.3721   -0.2191 H   0  0  0  1  0  0  0  0  0  0  0  0
   12.1320   -5.5092    1.5233 O   0  0  0  1  0  0  0  0  0  0  0  0
   12.0591   -4.6518    1.9490 H   0  0  0  1  0  0  0  0  0  0  0  0
   11.2408   -4.9647    0.0390 C   0  0  0  1  0  0  0  0  0  0  0  0
   10.6974   -4.9890    0.9604 H   0  0  0  1  0  0  0  0  0  0  0  0
   10.4930   -5.8699   -0.7694 O   0  0  0  1  0  0  0  0  0  0  0  0
   10.2108   -6.6170   -0.2367 H   0  0  0  1  0  0  0  0  0  0  0  0
   11.2108   -4.2143   -0.3025 C   0  0  0  1  0  0  0  0  0  0  0  0
   10.4445   -4.1661   -1.0477 H   0  0  0  1  0  0  0  0  0  0  0  0
   12.6259   -4.2472   -0.4990 C   0  0  0  1  0  0  0  0  0  0  0  0
   13.2372   -4.1612   -1.3730 H   0  0  0  1  0  0  0  0  0  0  0  0
   13.3074   -3.4727    0.4482 O   0  0  0  1  0  0  0  0  0  0  0  0
   13.4649   -2.5954    0.0915 H   0  0  0  1  0  0  0  0  0  0  0  0
   13.3252   -5.8593   -1.1256 N   0  0  0  1  0  0  0  0  0  0  0  0
   14.2204   -6.1867   -0.8978 H   0  0  0  1  0  0  0  0  0  0  0  0
   11.9039   -3.8560   -0.5713 O   0  0  0  1  0  0  0  0  0  0  0  0
   12.6558   -4.9977   -0.1576 C   0  0  0  1  0  0  0  0  0  0  0  0
   13.3764   -4.9924    0.6333 H   0  0  0  1  0  0  0  0  0  0  0  0
   10.6857   -3.2451    0.7207 C   0  0  0  1  0  0  0  0  0  0  0  0
   11.3816   -3.1540    1.5284 H   0  0  0  1  0  0  0  0  0  0  0  0
    9.7440   -3.5861    1.0973 H   0  0  0  1  0  0  0  0  0  0  0  0
   10.5243   -1.9899    0.0760 O   0  0  0  1  0  0  0  0  0  0  0  0
   10.0092   -2.1054   -0.7259 H   0  0  0  1  0  0  0  0  0  0  0  0
   12.8056   -6.2389   -2.3093 C   0  0  0  1  0  0  0  0  0  0  0  0
   11.6931   -5.9366   -2.7082 O   0  0  0  1  0  0  0  0  0  0  0  0
   13.7399   -7.1000   -3.1369 C   0  0  0  1  0  0  0  0  0  0  0  0
   13.5750   -8.1313   -2.9045 H   0  0  0  1  0  0  0  0  0  0  0  0
   14.7541   -6.8420   -2.9134 H   0  0  0  1  0  0  0  0  0  0  0  0
   13.5501   -6.9341   -4.1768 H   0  0  0  1  0  0  0  0  0  0  0  0
  1  2  1  0  0  0  0
  1  3  1  0  0  0  0
  1  5  1  0  0  0  0
  1 18  1  0  0  0  0
  3  4  1  0  0  0  0
  5  6  1  0  0  0  0
  5  7  1  0  0  0  0
  5  9  1  0  0  0  0
  7  8  1  0  0  0  0
  9 10  1  0  0  0  0
  9 17  1  0  0  0  0
  9 20  1  0  0  0  0
 11 12  1  0  0  0  0
 11 13  1  0  0  0  0
 11 17  1  0  0  0  0
 11 18  1  0  0  0  0
 13 14  1  0  0  0  0
 15 16  1  0  0  0  0
 15 18  1  0  0  0  0
 15 25  1  0  0  0  0
 18 19  1  0  0  0  0
 20 21  1  0  0  0  0
 20 22  1  0  0  0  0
 20 23  1  0  0  0  0
 23 24  1  0  0  0  0
 25 26  2  0  0  0  0
 25 27  1  0  0  0  0
 27 28  1  0  0  0  0
 27 29  1  0  0  0  0
 27 30  1  0  0  0  0
M  END
> <ConfClashScore>
0.0422984 

> <ConfOneFourInteractionScore>
-0.964066 

> <ConfScore>
4.80321 

> <ConfScorePBest>
0.0120085 

> <ConfTolerance>
0.365403 

$$$$
L09.****
  PyMOL2.4          3D                             0

 30 30  0  0  0  0  0  0  0  0999 V2000
   12.0434   -5.2907    0.0645 C   0  0  0  1  0  0  0  0  0  0  0  0
   12.0734   -5.9905   -0.7444 H   0  0  0  1  0  0  0  0  0  0  0  0
   12.2603   -6.1510    1.1656 O   0  0  0  1  0  0  0  0  0  0  0  0
   12.2519   -7.0631    0.8662 H   0  0  0  1  0  0  0  0  0  0  0  0
   11.2780   -4.9862    0.1215 C   0  0  0  1  0  0  0  0  0  0  0  0
   10.7936   -5.4030    0.9797 H   0  0  0  1  0  0  0  0  0  0  0  0
   10.5182   -5.5717   -0.9329 O   0  0  0  1  0  0  0  0  0  0  0  0
    9.5847   -5.3998   -0.7889 H   0  0  0  1  0  0  0  0  0  0  0  0
   11.1564   -4.1703    0.1079 C   0  0  0  1  0  0  0  0  0  0  0  0
   10.4417   -3.9376   -0.6537 H   0  0  0  1  0  0  0  0  0  0  0  0
   12.5644   -3.9626   -0.0197 C   0  0  0  1  0  0  0  0  0  0  0  0
   13.2159   -3.4739    0.6743 H   0  0  0  1  0  0  0  0  0  0  0  0
   13.0963   -3.5534   -1.2537 O   0  0  0  1  0  0  0  0  0  0  0  0
   13.8296   -2.9524   -1.1032 H   0  0  0  1  0  0  0  0  0  0  0  0
   13.5879   -5.0732    1.1661 N   0  0  0  1  0  0  0  0  0  0  0  0
   13.3090   -4.7447    2.0463 H   0  0  0  1  0  0  0  0  0  0  0  0
   11.8001   -3.6589    0.0372 O   0  0  0  1  0  0  0  0  0  0  0  0
   12.6860   -4.7784   -0.0060 C   0  0  0  1  0  0  0  0  0  0  0  0
   13.3103   -5.0751   -0.8228 H   0  0  0  1  0  0  0  0  0  0  0  0
   10.4370   -3.6462    1.3173 C   0  0  0  1  0  0  0  0  0  0  0  0
   11.1011   -3.6518    2.1562 H   0  0  0  1  0  0  0  0  0  0  0  0
    9.5923   -4.2688    1.5262 H   0  0  0  1  0  0  0  0  0  0  0  0
    9.9959   -2.3183    1.0732 O   0  0  0  1  0  0  0  0  0  0  0  0
   10.6484   -1.8565    0.5416 H   0  0  0  1  0  0  0  0  0  0  0  0
   14.7363   -5.7471    1.0951 C   0  0  0  1  0  0  0  0  0  0  0  0
   15.1350   -6.2843    0.0627 O   0  0  0  1  0  0  0  0  0  0  0  0
   15.5394   -5.8170    2.3794 C   0  0  0  1  0  0  0  0  0  0  0  0
   15.7997   -6.8347    2.5829 H   0  0  0  1  0  0  0  0  0  0  0  0
   14.9540   -5.4305    3.1874 H   0  0  0  1  0  0  0  0  0  0  0  0
   16.4312   -5.2352    2.2742 H   0  0  0  1  0  0  0  0  0  0  0  0
  1  2  1  0  0  0  0
  1  3  1  0  0  0  0
  1  5  1  0  0  0  0
  1 18  1  0  0  0  0
  3  4  1  0  0  0  0
  5  6  1  0  0  0  0
  5  7  1  0  0  0  0
  5  9  1  0  0  0  0
  7  8  1  0  0  0  0
  9 10  1  0  0  0  0
  9 17  1  0  0  0  0
  9 20  1  0  0  0  0
 11 12  1  0  0  0  0
 11 13  1  0  0  0  0
 11 17  1  0  0  0  0
 11 18  1  0  0  0  0
 13 14  1  0  0  0  0
 15 16  1  0  0  0  0
 15 18  1  0  0  0  0
 15 25  1  0  0  0  0
 18 19  1  0  0  0  0
 20 21  1  0  0  0  0
 20 22  1  0  0  0  0
 20 23  1  0  0  0  0
 23 24  1  0  0  0  0
 25 26  2  0  0  0  0
 25 27  1  0  0  0  0
 27 28  1  0  0  0  0
 27 29  1  0  0  0  0
 27 30  1  0  0  0  0
M  END
> <ConfClashScore>
0.0427852 

> <ConfOneFourInteractionScore>
-0.95717 

> <ConfScore>
4.8221 

> <ConfScorePBest>
0.0119055 

> <ConfTolerance>
0.25 

$$$$
L09.****
  PyMOL2.4          3D                             0

 30 30  0  0  0  0  0  0  0  0999 V2000
   11.9080   -5.2882    0.0647 C   0  0  0  1  0  0  0  0  0  0  0  0
   11.9616   -5.7703    1.0185 H   0  0  0  1  0  0  0  0  0  0  0  0
   12.0540   -6.3965   -0.8244 O   0  0  0  1  0  0  0  0  0  0  0  0
   12.2631   -7.1863   -0.3204 H   0  0  0  1  0  0  0  0  0  0  0  0
   11.1536   -4.9747   -0.0551 C   0  0  0  1  0  0  0  0  0  0  0  0
   10.5554   -5.6291   -0.6541 H   0  0  0  1  0  0  0  0  0  0  0  0
   10.5345   -5.0931    1.2234 O   0  0  0  1  0  0  0  0  0  0  0  0
   11.0845   -4.6691    1.8862 H   0  0  0  1  0  0  0  0  0  0  0  0
   11.0660   -4.1899   -0.2940 C   0  0  0  1  0  0  0  0  0  0  0  0
   10.3859   -3.6892    0.3630 H   0  0  0  1  0  0  0  0  0  0  0  0
   12.4861   -4.0312   -0.2934 C   0  0  0  1  0  0  0  0  0  0  0  0
   13.1313   -3.8057   -1.1167 H   0  0  0  1  0  0  0  0  0  0  0  0
   13.0330   -3.2695    0.7290 O   0  0  0  1  0  0  0  0  0  0  0  0
   13.9902   -3.2752    0.6561 H   0  0  0  1  0  0  0  0  0  0  0  0
   13.5302   -5.4495   -0.9851 N   0  0  0  1  0  0  0  0  0  0  0  0
   13.3244   -5.4557   -1.9432 H   0  0  0  1  0  0  0  0  0  0  0  0
   11.7328   -3.7186   -0.4130 O   0  0  0  1  0  0  0  0  0  0  0  0
   12.5738   -4.8160   -0.0546 C   0  0  0  1  0  0  0  0  0  0  0  0
   13.1543   -4.8269    0.8442 H   0  0  0  1  0  0  0  0  0  0  0  0
   10.3306   -4.0590   -1.5994 C   0  0  0  1  0  0  0  0  0  0  0  0
   10.1619   -3.0208   -1.7958 H   0  0  0  1  0  0  0  0  0  0  0  0
    9.3910   -4.5641   -1.5163 H   0  0  0  1  0  0  0  0  0  0  0  0
   11.0539   -4.6175   -2.6882 O   0  0  0  1  0  0  0  0  0  0  0  0
   10.4676   -5.1658   -3.2148 H   0  0  0  1  0  0  0  0  0  0  0  0
   14.7021   -6.0323   -0.5527 C   0  0  0  1  0  0  0  0  0  0  0  0
   15.0447   -5.9237    0.6095 O   0  0  0  1  0  0  0  0  0  0  0  0
   15.4856   -6.7797   -1.5920 C   0  0  0  1  0  0  0  0  0  0  0  0
   16.4482   -6.3269   -1.7077 H   0  0  0  1  0  0  0  0  0  0  0  0
   14.9621   -6.7474   -2.5246 H   0  0  0  1  0  0  0  0  0  0  0  0
   15.6052   -7.7976   -1.2845 H   0  0  0  1  0  0  0  0  0  0  0  0
  1  2  1  0  0  0  0
  1  3  1  0  0  0  0
  1  5  1  0  0  0  0
  1 18  1  0  0  0  0
  3  4  1  0  0  0  0
  5  6  1  0  0  0  0
  5  7  1  0  0  0  0
  5  9  1  0  0  0  0
  7  8  1  0  0  0  0
  9 10  1  0  0  0  0
  9 17  1  0  0  0  0
  9 20  1  0  0  0  0
 11 12  1  0  0  0  0
 11 13  1  0  0  0  0
 11 17  1  0  0  0  0
 11 18  1  0  0  0  0
 13 14  1  0  0  0  0
 15 16  1  0  0  0  0
 15 18  1  0  0  0  0
 15 25  1  0  0  0  0
 18 19  1  0  0  0  0
 20 21  1  0  0  0  0
 20 22  1  0  0  0  0
 20 23  1  0  0  0  0
 23 24  1  0  0  0  0
 25 26  2  0  0  0  0
 25 27  1  0  0  0  0
 27 28  1  0  0  0  0
 27 29  1  0  0  0  0
 27 30  1  0  0  0  0
M  END
> <ConfClashScore>
0.0436294 

> <ConfOneFourInteractionScore>
-0.968695 

> <ConfScore>
4.85312 

> <ConfScorePBest>
0.0118025 

> <ConfTolerance>
0.25 

$$$$
L09.****
  PyMOL2.4          3D                             0

 30 30  0  0  0  0  0  0  0  0999 V2000
   12.0814   -5.2655    0.1064 C   0  0  0  1  0  0  0  0  0  0  0  0
   12.1961   -5.5909    1.1192 H   0  0  0  1  0  0  0  0  0  0  0  0
   12.0405   -6.5063   -0.5766 O   0  0  0  1  0  0  0  0  0  0  0  0
   12.2065   -7.2194    0.0443 H   0  0  0  1  0  0  0  0  0  0  0  0
   11.3316   -4.9335    0.0092 C   0  0  0  1  0  0  0  0  0  0  0  0
   10.6466   -5.6276   -0.4313 H   0  0  0  1  0  0  0  0  0  0  0  0
   10.7811   -4.7486    1.3142 O   0  0  0  1  0  0  0  0  0  0  0  0
    9.8373   -4.9229    1.2915 H   0  0  0  1  0  0  0  0  0  0  0  0
   11.2532   -4.1797   -0.3167 C   0  0  0  1  0  0  0  0  0  0  0  0
   10.6265   -3.5718    0.3019 H   0  0  0  1  0  0  0  0  0  0  0  0
   12.6732   -4.0889   -0.4484 C   0  0  0  1  0  0  0  0  0  0  0  0
   13.2976   -3.9470   -1.3057 H   0  0  0  1  0  0  0  0  0  0  0  0
   13.2545   -3.2594    0.5057 O   0  0  0  1  0  0  0  0  0  0  0  0
   12.5952   -3.0092    1.1572 H   0  0  0  1  0  0  0  0  0  0  0  0
   13.5525   -5.6820   -1.0474 N   0  0  0  1  0  0  0  0  0  0  0  0
   13.2398   -5.8013   -1.9685 H   0  0  0  1  0  0  0  0  0  0  0  0
   11.9246   -3.7578   -0.5454 O   0  0  0  1  0  0  0  0  0  0  0  0
   12.7516   -4.8428   -0.1226 C   0  0  0  1  0  0  0  0  0  0  0  0
   13.4208   -4.7866    0.7104 H   0  0  0  1  0  0  0  0  0  0  0  0
   10.4582   -4.1982   -1.5908 C   0  0  0  1  0  0  0  0  0  0  0  0
   10.8643   -4.9239   -2.2642 H   0  0  0  1  0  0  0  0  0  0  0  0
   10.4819   -3.2321   -2.0502 H   0  0  0  1  0  0  0  0  0  0  0  0
    9.1208   -4.5430   -1.2546 O   0  0  0  1  0  0  0  0  0  0  0  0
    9.0533   -4.6775   -0.3065 H   0  0  0  1  0  0  0  0  0  0  0  0
   14.6899   -6.2832   -0.6666 C   0  0  0  1  0  0  0  0  0  0  0  0
   15.1581   -6.1751    0.4659 O   0  0  0  1  0  0  0  0  0  0  0  0
   15.3801   -7.1189   -1.7270 C   0  0  0  1  0  0  0  0  0  0  0  0
   15.1613   -6.7193   -2.6951 H   0  0  0  1  0  0  0  0  0  0  0  0
   15.0287   -8.1280   -1.6701 H   0  0  0  1  0  0  0  0  0  0  0  0
   16.4374   -7.0992   -1.5639 H   0  0  0  1  0  0  0  0  0  0  0  0
  1  2  1  0  0  0  0
  1  3  1  0  0  0  0
  1  5  1  0  0  0  0
  1 18  1  0  0  0  0
  3  4  1  0  0  0  0
  5  6  1  0  0  0  0
  5  7  1  0  0  0  0
  5  9  1  0  0  0  0
  7  8  1  0  0  0  0
  9 10  1  0  0  0  0
  9 17  1  0  0  0  0
  9 20  1  0  0  0  0
 11 12  1  0  0  0  0
 11 13  1  0  0  0  0
 11 17  1  0  0  0  0
 11 18  1  0  0  0  0
 13 14  1  0  0  0  0
 15 16  1  0  0  0  0
 15 18  1  0  0  0  0
 15 25  1  0  0  0  0
 18 19  1  0  0  0  0
 20 21  1  0  0  0  0
 20 22  1  0  0  0  0
 20 23  1  0  0  0  0
 23 24  1  0  0  0  0
 25 26  2  0  0  0  0
 25 27  1  0  0  0  0
 27 28  1  0  0  0  0
 27 29  1  0  0  0  0
 27 30  1  0  0  0  0
M  END
> <ConfClashScore>
0.0419942 

> <ConfOneFourInteractionScore>
-0.942232 

> <ConfScore>
4.87375 

> <ConfScorePBest>
0.0116995 

> <ConfTolerance>
0.264798 

$$$$
L09.****
  PyMOL2.4          3D                             0

 30 30  0  0  0  0  0  0  0  0999 V2000
   12.0658   -5.2880    0.1503 C   0  0  0  1  0  0  0  0  0  0  0  0
   12.2092   -5.7559    1.1018 H   0  0  0  1  0  0  0  0  0  0  0  0
   12.1083   -6.4061   -0.7383 O   0  0  0  1  0  0  0  0  0  0  0  0
   11.5177   -7.0921   -0.4187 H   0  0  0  1  0  0  0  0  0  0  0  0
   11.3110   -4.9581    0.0938 C   0  0  0  1  0  0  0  0  0  0  0  0
   10.6808   -5.6096   -0.4748 H   0  0  0  1  0  0  0  0  0  0  0  0
   10.6923   -5.0291    1.3760 O   0  0  0  1  0  0  0  0  0  0  0  0
    9.8557   -5.4943    1.3028 H   0  0  0  1  0  0  0  0  0  0  0  0
   11.2182   -4.1838   -0.1755 C   0  0  0  1  0  0  0  0  0  0  0  0
   10.5725   -3.6265    0.4705 H   0  0  0  1  0  0  0  0  0  0  0  0
   12.6339   -4.0686   -0.3322 C   0  0  0  1  0  0  0  0  0  0  0  0
   13.1890   -3.9085   -1.2328 H   0  0  0  1  0  0  0  0  0  0  0  0
   13.2526   -3.1956    0.5542 O   0  0  0  1  0  0  0  0  0  0  0  0
   13.6682   -2.4824    0.0640 H   0  0  0  1  0  0  0  0  0  0  0  0
   13.6366   -4.8224    1.0870 N   0  0  0  1  0  0  0  0  0  0  0  0
   13.2650   -4.6746    1.9817 H   0  0  0  1  0  0  0  0  0  0  0  0
   11.8802   -3.7395   -0.3884 O   0  0  0  1  0  0  0  0  0  0  0  0
   12.7267   -4.8429   -0.0628 C   0  0  0  1  0  0  0  0  0  0  0  0
   13.3114   -5.3946   -0.7690 H   0  0  0  1  0  0  0  0  0  0  0  0
   10.3990   -4.2398   -1.4328 C   0  0  0  1  0  0  0  0  0  0  0  0
   10.2412   -3.2468   -1.7989 H   0  0  0  1  0  0  0  0  0  0  0  0
    9.4549   -4.6970   -1.2220 H   0  0  0  1  0  0  0  0  0  0  0  0
   11.0837   -5.0022   -2.4163 O   0  0  0  1  0  0  0  0  0  0  0  0
   11.2435   -4.4573   -3.1903 H   0  0  0  1  0  0  0  0  0  0  0  0
   14.9547   -4.9982    0.9573 C   0  0  0  1  0  0  0  0  0  0  0  0
   15.5010   -5.1546   -0.1223 O   0  0  0  1  0  0  0  0  0  0  0  0
   15.7502   -4.9927    2.2482 C   0  0  0  1  0  0  0  0  0  0  0  0
   16.7931   -5.0801    2.0255 H   0  0  0  1  0  0  0  0  0  0  0  0
   15.4456   -5.8175    2.8580 H   0  0  0  1  0  0  0  0  0  0  0  0
   15.5731   -4.0767    2.7721 H   0  0  0  1  0  0  0  0  0  0  0  0
  1  2  1  0  0  0  0
  1  3  1  0  0  0  0
  1  5  1  0  0  0  0
  1 18  1  0  0  0  0
  3  4  1  0  0  0  0
  5  6  1  0  0  0  0
  5  7  1  0  0  0  0
  5  9  1  0  0  0  0
  7  8  1  0  0  0  0
  9 10  1  0  0  0  0
  9 17  1  0  0  0  0
  9 20  1  0  0  0  0
 11 12  1  0  0  0  0
 11 13  1  0  0  0  0
 11 17  1  0  0  0  0
 11 18  1  0  0  0  0
 13 14  1  0  0  0  0
 15 16  1  0  0  0  0
 15 18  1  0  0  0  0
 15 25  1  0  0  0  0
 18 19  1  0  0  0  0
 20 21  1  0  0  0  0
 20 22  1  0  0  0  0
 20 23  1  0  0  0  0
 23 24  1  0  0  0  0
 25 26  2  0  0  0  0
 25 27  1  0  0  0  0
 27 28  1  0  0  0  0
 27 29  1  0  0  0  0
 27 30  1  0  0  0  0
M  END
> <ConfClashScore>
0.0438974 

> <ConfOneFourInteractionScore>
-0.957877 

> <ConfScore>
4.89146 

> <ConfScorePBest>
0.0115965 

> <ConfTolerance>
0.539085 

$$$$
L09.****
  PyMOL2.4          3D                             0

 30 30  0  0  0  0  0  0  0  0999 V2000
   11.9784   -5.2235    0.1372 C   0  0  0  1  0  0  0  0  0  0  0  0
   12.0892   -6.0126   -0.5769 H   0  0  0  1  0  0  0  0  0  0  0  0
   11.7914   -5.9504    1.3544 O   0  0  0  1  0  0  0  0  0  0  0  0
   12.1486   -6.8361    1.2568 H   0  0  0  1  0  0  0  0  0  0  0  0
   11.2611   -4.8284    0.0323 C   0  0  0  1  0  0  0  0  0  0  0  0
   10.5457   -5.1809    0.7457 H   0  0  0  1  0  0  0  0  0  0  0  0
   10.6887   -5.2898   -1.1889 O   0  0  0  1  0  0  0  0  0  0  0  0
   10.4879   -6.2257   -1.1152 H   0  0  0  1  0  0  0  0  0  0  0  0
   11.2443   -4.0040    0.0038 C   0  0  0  1  0  0  0  0  0  0  0  0
   10.6694   -3.6585   -0.8299 H   0  0  0  1  0  0  0  0  0  0  0  0
   12.6614   -3.9690    0.1849 C   0  0  0  1  0  0  0  0  0  0  0  0
   13.2182   -3.5455    0.9945 H   0  0  0  1  0  0  0  0  0  0  0  0
   13.4458   -3.6277   -0.9244 O   0  0  0  1  0  0  0  0  0  0  0  0
   12.8815   -3.5110   -1.6922 H   0  0  0  1  0  0  0  0  0  0  0  0
   13.5933   -5.3350   -0.7800 N   0  0  0  1  0  0  0  0  0  0  0  0
   13.3007   -5.3876   -1.7138 H   0  0  0  1  0  0  0  0  0  0  0  0
   11.9450   -3.5749    0.0801 O   0  0  0  1  0  0  0  0  0  0  0  0
   12.6781   -4.7934    0.2134 C   0  0  0  1  0  0  0  0  0  0  0  0
   13.1693   -5.0950    1.1149 H   0  0  0  1  0  0  0  0  0  0  0  0
   10.4317   -3.4766    1.1645 C   0  0  0  1  0  0  0  0  0  0  0  0
    9.4244   -3.8310    1.0961 H   0  0  0  1  0  0  0  0  0  0  0  0
   10.4352   -2.4067    1.1566 H   0  0  0  1  0  0  0  0  0  0  0  0
   11.0338   -3.9546    2.3588 O   0  0  0  1  0  0  0  0  0  0  0  0
   10.3901   -3.9385    3.0709 H   0  0  0  1  0  0  0  0  0  0  0  0
   14.8186   -5.7631   -0.4632 C   0  0  0  1  0  0  0  0  0  0  0  0
   15.2732   -5.7077    0.6787 O   0  0  0  1  0  0  0  0  0  0  0  0
   15.6343   -6.3316   -1.6081 C   0  0  0  1  0  0  0  0  0  0  0  0
   14.9937   -6.8846   -2.2628 H   0  0  0  1  0  0  0  0  0  0  0  0
   16.3914   -6.9798   -1.2188 H   0  0  0  1  0  0  0  0  0  0  0  0
   16.0932   -5.5315   -2.1504 H   0  0  0  1  0  0  0  0  0  0  0  0
  1  2  1  0  0  0  0
  1  3  1  0  0  0  0
  1  5  1  0  0  0  0
  1 18  1  0  0  0  0
  3  4  1  0  0  0  0
  5  6  1  0  0  0  0
  5  7  1  0  0  0  0
  5  9  1  0  0  0  0
  7  8  1  0  0  0  0
  9 10  1  0  0  0  0
  9 17  1  0  0  0  0
  9 20  1  0  0  0  0
 11 12  1  0  0  0  0
 11 13  1  0  0  0  0
 11 17  1  0  0  0  0
 11 18  1  0  0  0  0
 13 14  1  0  0  0  0
 15 16  1  0  0  0  0
 15 18  1  0  0  0  0
 15 25  1  0  0  0  0
 18 19  1  0  0  0  0
 20 21  1  0  0  0  0
 20 22  1  0  0  0  0
 20 23  1  0  0  0  0
 23 24  1  0  0  0  0
 25 26  2  0  0  0  0
 25 27  1  0  0  0  0
 27 28  1  0  0  0  0
 27 29  1  0  0  0  0
 27 30  1  0  0  0  0
M  END
> <ConfClashScore>
0.0439951 

> <ConfOneFourInteractionScore>
-0.968695 

> <ConfScore>
4.89301 

> <ConfScorePBest>
0.0114935 

> <ConfTolerance>
0.25 

$$$$
L09.****
  PyMOL2.4          3D                             0

 30 30  0  0  0  0  0  0  0  0999 V2000
   12.0586   -5.2646    0.0864 C   0  0  0  1  0  0  0  0  0  0  0  0
   12.2114   -5.6659    1.0665 H   0  0  0  1  0  0  0  0  0  0  0  0
   12.0049   -6.4489   -0.7130 O   0  0  0  1  0  0  0  0  0  0  0  0
   11.5932   -7.1560   -0.2109 H   0  0  0  1  0  0  0  0  0  0  0  0
   11.3218   -4.8962    0.0294 C   0  0  0  1  0  0  0  0  0  0  0  0
   10.5795   -5.5572   -0.3666 H   0  0  0  1  0  0  0  0  0  0  0  0
   10.8555   -4.6786    1.3635 O   0  0  0  1  0  0  0  0  0  0  0  0
   10.2482   -5.3803    1.6092 H   0  0  0  1  0  0  0  0  0  0  0  0
   11.2624   -4.1407   -0.2967 C   0  0  0  1  0  0  0  0  0  0  0  0
   10.7273   -3.5018    0.3744 H   0  0  0  1  0  0  0  0  0  0  0  0
   12.6754   -4.1211   -0.5091 C   0  0  0  1  0  0  0  0  0  0  0  0
   13.2382   -4.0314   -1.4147 H   0  0  0  1  0  0  0  0  0  0  0  0
   13.3803   -3.3034    0.3742 O   0  0  0  1  0  0  0  0  0  0  0  0
   12.7702   -2.9076    1.0009 H   0  0  0  1  0  0  0  0  0  0  0  0
   13.7356   -4.8467    0.9107 N   0  0  0  1  0  0  0  0  0  0  0  0
   13.4422   -4.6041    1.8137 H   0  0  0  1  0  0  0  0  0  0  0  0
   11.9396   -3.7536   -0.5659 O   0  0  0  1  0  0  0  0  0  0  0  0
   12.7348   -4.8766   -0.1829 C   0  0  0  1  0  0  0  0  0  0  0  0
   13.2355   -5.5116   -0.8837 H   0  0  0  1  0  0  0  0  0  0  0  0
   10.3566   -4.0959   -1.4965 C   0  0  0  1  0  0  0  0  0  0  0  0
    9.4344   -4.5787   -1.2487 H   0  0  0  1  0  0  0  0  0  0  0  0
   10.8280   -4.6187   -2.3023 H   0  0  0  1  0  0  0  0  0  0  0  0
   10.0774   -2.7680   -1.9161 O   0  0  0  1  0  0  0  0  0  0  0  0
   10.1366   -2.1750   -1.1635 H   0  0  0  1  0  0  0  0  0  0  0  0
   15.0382   -5.1423    0.7055 C   0  0  0  1  0  0  0  0  0  0  0  0
   15.4860   -5.4687   -0.3929 O   0  0  0  1  0  0  0  0  0  0  0  0
   15.9349   -5.0484    1.9246 C   0  0  0  1  0  0  0  0  0  0  0  0
   15.3754   -4.6615    2.7506 H   0  0  0  1  0  0  0  0  0  0  0  0
   16.7562   -4.3958    1.7135 H   0  0  0  1  0  0  0  0  0  0  0  0
   16.3059   -6.0215    2.1700 H   0  0  0  1  0  0  0  0  0  0  0  0
  1  2  1  0  0  0  0
  1  3  1  0  0  0  0
  1  5  1  0  0  0  0
  1 18  1  0  0  0  0
  3  4  1  0  0  0  0
  5  6  1  0  0  0  0
  5  7  1  0  0  0  0
  5  9  1  0  0  0  0
  7  8  1  0  0  0  0
  9 10  1  0  0  0  0
  9 17  1  0  0  0  0
  9 20  1  0  0  0  0
 11 12  1  0  0  0  0
 11 13  1  0  0  0  0
 11 17  1  0  0  0  0
 11 18  1  0  0  0  0
 13 14  1  0  0  0  0
 15 16  1  0  0  0  0
 15 18  1  0  0  0  0
 15 25  1  0  0  0  0
 18 19  1  0  0  0  0
 20 21  1  0  0  0  0
 20 22  1  0  0  0  0
 20 23  1  0  0  0  0
 23 24  1  0  0  0  0
 25 26  2  0  0  0  0
 25 27  1  0  0  0  0
 27 28  1  0  0  0  0
 27 29  1  0  0  0  0
 27 30  1  0  0  0  0
M  END
> <ConfClashScore>
0.0443428 

> <ConfOneFourInteractionScore>
-0.95717 

> <ConfScore>
4.95064 

> <ConfScorePBest>
0.0113905 

> <ConfTolerance>
0.447046 

$$$$
L09.****
  PyMOL2.4          3D                             0

 30 30  0  0  0  0  0  0  0  0999 V2000
   11.9453   -5.2538   -0.1526 C   0  0  0  1  0  0  0  0  0  0  0  0
   11.8497   -6.1268   -0.7640 H   0  0  0  1  0  0  0  0  0  0  0  0
   12.2096   -5.8190    1.1340 O   0  0  0  1  0  0  0  0  0  0  0  0
   12.6165   -6.6820    1.0275 H   0  0  0  1  0  0  0  0  0  0  0  0
   11.2274   -4.8498   -0.0964 C   0  0  0  1  0  0  0  0  0  0  0  0
   10.4692   -5.3416   -0.6691 H   0  0  0  1  0  0  0  0  0  0  0  0
   10.7699   -5.0647    1.2412 O   0  0  0  1  0  0  0  0  0  0  0  0
   10.2106   -5.8446    1.2671 H   0  0  0  1  0  0  0  0  0  0  0  0
   11.2025   -4.0340   -0.2168 C   0  0  0  1  0  0  0  0  0  0  0  0
   10.6492   -3.5454    0.5578 H   0  0  0  1  0  0  0  0  0  0  0  0
   12.6124   -4.0253   -0.4497 C   0  0  0  1  0  0  0  0  0  0  0  0
   13.1131   -3.7685   -1.3597 H   0  0  0  1  0  0  0  0  0  0  0  0
   13.4271   -3.4546    0.4965 O   0  0  0  1  0  0  0  0  0  0  0  0
   13.0816   -3.6424    1.3723 H   0  0  0  1  0  0  0  0  0  0  0  0
   13.2968   -5.4334   -1.4977 N   0  0  0  1  0  0  0  0  0  0  0  0
   12.7269   -5.8543   -2.1747 H   0  0  0  1  0  0  0  0  0  0  0  0
   11.8955   -3.6223   -0.3935 O   0  0  0  1  0  0  0  0  0  0  0  0
   12.6373   -4.8411   -0.3293 C   0  0  0  1  0  0  0  0  0  0  0  0
   13.3631   -5.0521    0.4281 H   0  0  0  1  0  0  0  0  0  0  0  0
   10.3519   -3.7366   -1.4209 C   0  0  0  1  0  0  0  0  0  0  0  0
   10.5772   -4.4507   -2.1853 H   0  0  0  1  0  0  0  0  0  0  0  0
   10.5849   -2.7528   -1.7714 H   0  0  0  1  0  0  0  0  0  0  0  0
    8.9615   -3.8006   -1.1325 O   0  0  0  1  0  0  0  0  0  0  0  0
    8.7006   -3.0204   -0.6377 H   0  0  0  1  0  0  0  0  0  0  0  0
   14.6140   -5.4423   -1.7083 C   0  0  0  1  0  0  0  0  0  0  0  0
   15.4106   -4.8344   -0.9944 O   0  0  0  1  0  0  0  0  0  0  0  0
   15.0855   -6.2570   -2.8970 C   0  0  0  1  0  0  0  0  0  0  0  0
   14.6357   -5.8779   -3.7908 H   0  0  0  1  0  0  0  0  0  0  0  0
   14.8033   -7.2802   -2.7622 H   0  0  0  1  0  0  0  0  0  0  0  0
   16.1503   -6.1877   -2.9767 H   0  0  0  1  0  0  0  0  0  0  0  0
  1  2  1  0  0  0  0
  1  3  1  0  0  0  0
  1  5  1  0  0  0  0
  1 18  1  0  0  0  0
  3  4  1  0  0  0  0
  5  6  1  0  0  0  0
  5  7  1  0  0  0  0
  5  9  1  0  0  0  0
  7  8  1  0  0  0  0
  9 10  1  0  0  0  0
  9 17  1  0  0  0  0
  9 20  1  0  0  0  0
 11 12  1  0  0  0  0
 11 13  1  0  0  0  0
 11 17  1  0  0  0  0
 11 18  1  0  0  0  0
 13 14  1  0  0  0  0
 15 16  1  0  0  0  0
 15 18  1  0  0  0  0
 15 25  1  0  0  0  0
 18 19  1  0  0  0  0
 20 21  1  0  0  0  0
 20 22  1  0  0  0  0
 20 23  1  0  0  0  0
 23 24  1  0  0  0  0
 25 26  2  0  0  0  0
 25 27  1  0  0  0  0
 27 28  1  0  0  0  0
 27 29  1  0  0  0  0
 27 30  1  0  0  0  0
M  END
> <ConfClashScore>
0.0426557 

> <ConfOneFourInteractionScore>
-0.942232 

> <ConfScore>
4.95379 

> <ConfScorePBest>
0.0112875 

> <ConfTolerance>
0.602477 

$$$$
L09.****
  PyMOL2.4          3D                             0

 30 30  0  0  0  0  0  0  0  0999 V2000
   12.0561   -5.1796    0.3518 C   0  0  0  1  0  0  0  0  0  0  0  0
   12.1818   -5.3950    1.3923 H   0  0  0  1  0  0  0  0  0  0  0  0
   12.1575   -6.4868   -0.2188 O   0  0  0  1  0  0  0  0  0  0  0  0
   11.9489   -7.1448    0.4483 H   0  0  0  1  0  0  0  0  0  0  0  0
   11.2851   -4.9197    0.2110 C   0  0  0  1  0  0  0  0  0  0  0  0
   10.7218   -4.9226    1.1208 H   0  0  0  1  0  0  0  0  0  0  0  0
   10.6515   -5.9664   -0.5204 O   0  0  0  1  0  0  0  0  0  0  0  0
    9.7006   -5.8350   -0.5092 H   0  0  0  1  0  0  0  0  0  0  0  0
   11.1553   -4.2180   -0.2029 C   0  0  0  1  0  0  0  0  0  0  0  0
   10.4057   -4.3360   -0.9573 H   0  0  0  1  0  0  0  0  0  0  0  0
   12.5663   -4.0353   -0.3356 C   0  0  0  1  0  0  0  0  0  0  0  0
   13.1541   -4.0003   -1.2290 H   0  0  0  1  0  0  0  0  0  0  0  0
   13.1825   -3.0769    0.4633 O   0  0  0  1  0  0  0  0  0  0  0  0
   13.9320   -2.7026   -0.0056 H   0  0  0  1  0  0  0  0  0  0  0  0
   13.3738   -5.5268   -0.9816 N   0  0  0  1  0  0  0  0  0  0  0  0
   12.9443   -5.6431   -1.8548 H   0  0  0  1  0  0  0  0  0  0  0  0
   11.7965   -3.7761   -0.4760 O   0  0  0  1  0  0  0  0  0  0  0  0
   12.6961   -4.7370    0.0783 C   0  0  0  1  0  0  0  0  0  0  0  0
   13.4666   -4.6386    0.8141 H   0  0  0  1  0  0  0  0  0  0  0  0
   10.4970   -3.2404    0.7315 C   0  0  0  1  0  0  0  0  0  0  0  0
   11.1375   -3.0446    1.5659 H   0  0  0  1  0  0  0  0  0  0  0  0
    9.5671   -3.6384    1.0807 H   0  0  0  1  0  0  0  0  0  0  0  0
   10.2681   -2.0389    0.0017 O   0  0  0  1  0  0  0  0  0  0  0  0
   10.9450   -1.9390   -0.6716 H   0  0  0  1  0  0  0  0  0  0  0  0
   14.6127   -6.0998   -0.7381 C   0  0  0  1  0  0  0  0  0  0  0  0
   15.1027   -5.9800    0.3727 O   0  0  0  1  0  0  0  0  0  0  0  0
   15.3036   -6.8442   -1.8460 C   0  0  0  1  0  0  0  0  0  0  0  0
   14.7463   -7.7255   -2.0860 H   0  0  0  1  0  0  0  0  0  0  0  0
   16.2880   -7.1200   -1.5302 H   0  0  0  1  0  0  0  0  0  0  0  0
   15.3684   -6.2170   -2.7104 H   0  0  0  1  0  0  0  0  0  0  0  0
  1  2  1  0  0  0  0
  1  3  1  0  0  0  0
  1  5  1  0  0  0  0
  1 18  1  0  0  0  0
  3  4  1  0  0  0  0
  5  6  1  0  0  0  0
  5  7  1  0  0  0  0
  5  9  1  0  0  0  0
  7  8  1  0  0  0  0
  9 10  1  0  0  0  0
  9 17  1  0  0  0  0
  9 20  1  0  0  0  0
 11 12  1  0  0  0  0
 11 13  1  0  0  0  0
 11 17  1  0  0  0  0
 11 18  1  0  0  0  0
 13 14  1  0  0  0  0
 15 16  1  0  0  0  0
 15 18  1  0  0  0  0
 15 25  1  0  0  0  0
 18 19  1  0  0  0  0
 20 21  1  0  0  0  0
 20 22  1  0  0  0  0
 20 23  1  0  0  0  0
 23 24  1  0  0  0  0
 25 26  2  0  0  0  0
 25 27  1  0  0  0  0
 27 28  1  0  0  0  0
 27 29  1  0  0  0  0
 27 30  1  0  0  0  0
M  END
> <ConfClashScore>
0.0452322 

> <ConfOneFourInteractionScore>
-0.968695 

> <ConfScore>
4.98096 

> <ConfScorePBest>
0.0111845 

> <ConfTolerance>
0.25 

$$$$
L09.****
  PyMOL2.4          3D                             0

 30 30  0  0  0  0  0  0  0  0999 V2000
   11.9221   -5.2584    0.2192 C   0  0  0  1  0  0  0  0  0  0  0  0
   11.7321   -6.2892    0.0040 H   0  0  0  1  0  0  0  0  0  0  0  0
   12.2904   -5.3004    1.6002 O   0  0  0  1  0  0  0  0  0  0  0  0
   12.8583   -6.0582    1.7575 H   0  0  0  1  0  0  0  0  0  0  0  0
   11.2258   -4.8146    0.2128 C   0  0  0  1  0  0  0  0  0  0  0  0
   10.8290   -4.7112    1.2011 H   0  0  0  1  0  0  0  0  0  0  0  0
   10.2755   -5.6844   -0.3974 O   0  0  0  1  0  0  0  0  0  0  0  0
   10.6155   -5.9884   -1.2421 H   0  0  0  1  0  0  0  0  0  0  0  0
   11.1975   -4.0971   -0.1933 C   0  0  0  1  0  0  0  0  0  0  0  0
   10.3653   -4.1067   -0.8657 H   0  0  0  1  0  0  0  0  0  0  0  0
   12.5608   -4.2661   -0.5869 C   0  0  0  1  0  0  0  0  0  0  0  0
   12.9952   -4.3416   -1.5619 H   0  0  0  1  0  0  0  0  0  0  0  0
   13.4599   -3.4488    0.0884 O   0  0  0  1  0  0  0  0  0  0  0  0
   13.0021   -2.9794    0.7896 H   0  0  0  1  0  0  0  0  0  0  0  0
   12.9050   -5.9420   -1.2492 N   0  0  0  1  0  0  0  0  0  0  0  0
   12.2035   -6.1858   -1.8886 H   0  0  0  1  0  0  0  0  0  0  0  0
   11.8655   -3.8233   -0.5930 O   0  0  0  1  0  0  0  0  0  0  0  0
   12.5891   -4.9837   -0.1808 C   0  0  0  1  0  0  0  0  0  0  0  0
   13.4628   -5.0470    0.4335 H   0  0  0  1  0  0  0  0  0  0  0  0
   10.7771   -2.9974    0.7389 C   0  0  0  1  0  0  0  0  0  0  0  0
   11.4767   -2.9280    1.5455 H   0  0  0  1  0  0  0  0  0  0  0  0
    9.8039   -3.2136    1.1278 H   0  0  0  1  0  0  0  0  0  0  0  0
   10.7415   -1.7630    0.0372 O   0  0  0  1  0  0  0  0  0  0  0  0
   11.6074   -1.3499    0.0715 H   0  0  0  1  0  0  0  0  0  0  0  0
   14.1612   -6.5133   -1.3841 C   0  0  0  1  0  0  0  0  0  0  0  0
   14.3487   -7.2989   -2.2952 O   0  0  0  1  0  0  0  0  0  0  0  0
   15.2406   -6.1438   -0.4057 C   0  0  0  1  0  0  0  0  0  0  0  0
   16.1739   -6.5528   -0.7322 H   0  0  0  1  0  0  0  0  0  0  0  0
   14.9970   -6.5374    0.5590 H   0  0  0  1  0  0  0  0  0  0  0  0
   15.3192   -5.0783   -0.3474 H   0  0  0  1  0  0  0  0  0  0  0  0
  1  2  1  0  0  0  0
  1  3  1  0  0  0  0
  1  5  1  0  0  0  0
  1 18  1  0  0  0  0
  3  4  1  0  0  0  0
  5  6  1  0  0  0  0
  5  7  1  0  0  0  0
  5  9  1  0  0  0  0
  7  8  1  0  0  0  0
  9 10  1  0  0  0  0
  9 17  1  0  0  0  0
  9 20  1  0  0  0  0
 11 12  1  0  0  0  0
 11 13  1  0  0  0  0
 11 17  1  0  0  0  0
 11 18  1  0  0  0  0
 13 14  1  0  0  0  0
 15 16  1  0  0  0  0
 15 18  1  0  0  0  0
 15 25  1  0  0  0  0
 18 19  1  0  0  0  0
 20 21  1  0  0  0  0
 20 22  1  0  0  0  0
 20 23  1  0  0  0  0
 23 24  1  0  0  0  0
 25 26  2  0  0  0  0
 25 27  1  0  0  0  0
 27 28  1  0  0  0  0
 27 29  1  0  0  0  0
 27 30  1  0  0  0  0
M  END
> <ConfClashScore>
0.0417571 

> <ConfOneFourInteractionScore>
-0.972815 

> <ConfScore>
5.03866 

> <ConfScorePBest>
0.0110815 

> <ConfTolerance>
0.675622 

$$$$
L09.****
  PyMOL2.4          3D                             0

 30 30  0  0  0  0  0  0  0  0999 V2000
   11.9706   -5.2679   -0.1340 C   0  0  0  1  0  0  0  0  0  0  0  0
   12.1090   -5.8617   -1.0133 H   0  0  0  1  0  0  0  0  0  0  0  0
   11.9437   -6.2609    0.8946 O   0  0  0  1  0  0  0  0  0  0  0  0
   12.4398   -7.0316    0.6090 H   0  0  0  1  0  0  0  0  0  0  0  0
   11.2306   -4.9015   -0.1358 C   0  0  0  1  0  0  0  0  0  0  0  0
   10.6661   -5.1630   -1.0063 H   0  0  0  1  0  0  0  0  0  0  0  0
   10.4881   -5.5299    0.9061 O   0  0  0  1  0  0  0  0  0  0  0  0
    9.7839   -6.0586    0.5238 H   0  0  0  1  0  0  0  0  0  0  0  0
   11.1683   -4.0966    0.0343 C   0  0  0  1  0  0  0  0  0  0  0  0
   10.3805   -3.8982    0.7307 H   0  0  0  1  0  0  0  0  0  0  0  0
   12.5849   -4.0237    0.2081 C   0  0  0  1  0  0  0  0  0  0  0  0
   13.1638   -3.7506    1.0655 H   0  0  0  1  0  0  0  0  0  0  0  0
   13.2589   -3.3826   -0.8356 O   0  0  0  1  0  0  0  0  0  0  0  0
   13.8152   -2.6866   -0.4781 H   0  0  0  1  0  0  0  0  0  0  0  0
   13.5873   -5.0272   -1.0717 N   0  0  0  1  0  0  0  0  0  0  0  0
   13.2512   -4.9778   -1.9910 H   0  0  0  1  0  0  0  0  0  0  0  0
   11.8460   -3.6582    0.2062 O   0  0  0  1  0  0  0  0  0  0  0  0
   12.6472   -4.8285    0.0380 C   0  0  0  1  0  0  0  0  0  0  0  0
   13.1793   -5.3095    0.8320 H   0  0  0  1  0  0  0  0  0  0  0  0
   10.6657   -3.4013   -1.1984 C   0  0  0  1  0  0  0  0  0  0  0  0
   10.7064   -2.3408   -1.0619 H   0  0  0  1  0  0  0  0  0  0  0  0
    9.6573   -3.6972   -1.3992 H   0  0  0  1  0  0  0  0  0  0  0  0
   11.5071   -3.7839   -2.2769 O   0  0  0  1  0  0  0  0  0  0  0  0
   11.8941   -3.0007   -2.6749 H   0  0  0  1  0  0  0  0  0  0  0  0
   14.8853   -5.2732   -0.8721 C   0  0  0  1  0  0  0  0  0  0  0  0
   15.3681   -5.4340    0.2367 O   0  0  0  1  0  0  0  0  0  0  0  0
   15.7422   -5.3430   -2.1211 C   0  0  0  1  0  0  0  0  0  0  0  0
   16.7758   -5.3584   -1.8448 H   0  0  0  1  0  0  0  0  0  0  0  0
   15.5498   -4.4871   -2.7337 H   0  0  0  1  0  0  0  0  0  0  0  0
   15.5057   -6.2329   -2.6663 H   0  0  0  1  0  0  0  0  0  0  0  0
  1  2  1  0  0  0  0
  1  3  1  0  0  0  0
  1  5  1  0  0  0  0
  1 18  1  0  0  0  0
  3  4  1  0  0  0  0
  5  6  1  0  0  0  0
  5  7  1  0  0  0  0
  5  9  1  0  0  0  0
  7  8  1  0  0  0  0
  9 10  1  0  0  0  0
  9 17  1  0  0  0  0
  9 20  1  0  0  0  0
 11 12  1  0  0  0  0
 11 13  1  0  0  0  0
 11 17  1  0  0  0  0
 11 18  1  0  0  0  0
 13 14  1  0  0  0  0
 15 16  1  0  0  0  0
 15 18  1  0  0  0  0
 15 25  1  0  0  0  0
 18 19  1  0  0  0  0
 20 21  1  0  0  0  0
 20 22  1  0  0  0  0
 20 23  1  0  0  0  0
 23 24  1  0  0  0  0
 25 26  2  0  0  0  0
 25 27  1  0  0  0  0
 27 28  1  0  0  0  0
 27 29  1  0  0  0  0
 27 30  1  0  0  0  0
M  END
> <ConfClashScore>
0.0465096 

> <ConfOneFourInteractionScore>
-0.967492 

> <ConfScore>
5.11415 

> <ConfScorePBest>
0.0109785 

> <ConfTolerance>
0.25 

$$$$
L09.****
  PyMOL2.4          3D                             0

 30 30  0  0  0  0  0  0  0  0999 V2000
   11.9588   -5.2662    0.0694 C   0  0  0  1  0  0  0  0  0  0  0  0
   11.9086   -6.0217   -0.6866 H   0  0  0  1  0  0  0  0  0  0  0  0
   12.0832   -6.0447    1.2603 O   0  0  0  1  0  0  0  0  0  0  0  0
   12.2487   -6.9614    1.0281 H   0  0  0  1  0  0  0  0  0  0  0  0
   11.2464   -4.8524    0.1243 C   0  0  0  1  0  0  0  0  0  0  0  0
   10.6154   -5.2584    0.8871 H   0  0  0  1  0  0  0  0  0  0  0  0
   10.5498   -5.2106   -1.0666 O   0  0  0  1  0  0  0  0  0  0  0  0
   10.1469   -6.0747   -0.9545 H   0  0  0  1  0  0  0  0  0  0  0  0
   11.2485   -4.0275    0.1411 C   0  0  0  1  0  0  0  0  0  0  0  0
   10.5588   -3.6400   -0.5793 H   0  0  0  1  0  0  0  0  0  0  0  0
   12.6745   -4.0293    0.0481 C   0  0  0  1  0  0  0  0  0  0  0  0
   13.3943   -3.6573    0.7470 H   0  0  0  1  0  0  0  0  0  0  0  0
   13.2748   -3.7401   -1.1821 O   0  0  0  1  0  0  0  0  0  0  0  0
   12.8966   -2.9343   -1.5417 H   0  0  0  1  0  0  0  0  0  0  0  0
   13.6031   -5.2660    1.1521 N   0  0  0  1  0  0  0  0  0  0  0  0
   13.4370   -4.9527    2.0657 H   0  0  0  1  0  0  0  0  0  0  0  0
   11.9631   -3.6165    0.1030 O   0  0  0  1  0  0  0  0  0  0  0  0
   12.6724   -4.8541    0.0313 C   0  0  0  1  0  0  0  0  0  0  0  0
   13.2264   -5.1893   -0.8205 H   0  0  0  1  0  0  0  0  0  0  0  0
   10.6586   -3.4934    1.4145 C   0  0  0  1  0  0  0  0  0  0  0  0
   10.9403   -2.4681    1.5343 H   0  0  0  1  0  0  0  0  0  0  0  0
   11.0247   -4.0635    2.2427 H   0  0  0  1  0  0  0  0  0  0  0  0
    9.2425   -3.5910    1.3634 O   0  0  0  1  0  0  0  0  0  0  0  0
    8.9426   -3.4334    0.4652 H   0  0  0  1  0  0  0  0  0  0  0  0
   14.6681   -6.0690    0.8940 C   0  0  0  1  0  0  0  0  0  0  0  0
   14.8359   -6.6124   -0.1969 O   0  0  0  1  0  0  0  0  0  0  0  0
   15.6035   -6.3497    2.0658 C   0  0  0  1  0  0  0  0  0  0  0  0
   16.6188   -6.3044    1.7311 H   0  0  0  1  0  0  0  0  0  0  0  0
   15.4008   -7.3243    2.4582 H   0  0  0  1  0  0  0  0  0  0  0  0
   15.4472   -5.6174    2.8301 H   0  0  0  1  0  0  0  0  0  0  0  0
  1  2  1  0  0  0  0
  1  3  1  0  0  0  0
  1  5  1  0  0  0  0
  1 18  1  0  0  0  0
  3  4  1  0  0  0  0
  5  6  1  0  0  0  0
  5  7  1  0  0  0  0
  5  9  1  0  0  0  0
  7  8  1  0  0  0  0
  9 10  1  0  0  0  0
  9 17  1  0  0  0  0
  9 20  1  0  0  0  0
 11 12  1  0  0  0  0
 11 13  1  0  0  0  0
 11 17  1  0  0  0  0
 11 18  1  0  0  0  0
 13 14  1  0  0  0  0
 15 16  1  0  0  0  0
 15 18  1  0  0  0  0
 15 25  1  0  0  0  0
 18 19  1  0  0  0  0
 20 21  1  0  0  0  0
 20 22  1  0  0  0  0
 20 23  1  0  0  0  0
 23 24  1  0  0  0  0
 25 26  2  0  0  0  0
 25 27  1  0  0  0  0
 27 28  1  0  0  0  0
 27 29  1  0  0  0  0
 27 30  1  0  0  0  0
M  END
> <ConfClashScore>
0.0437677 

> <ConfOneFourInteractionScore>
-0.942232 

> <ConfScore>
5.13919 

> <ConfScorePBest>
0.0108755 

> <ConfTolerance>
0.539964 

$$$$
L09.****
  PyMOL2.4          3D                             0

 30 30  0  0  0  0  0  0  0  0999 V2000
   12.0717   -5.2544    0.0356 C   0  0  0  1  0  0  0  0  0  0  0  0
   12.0984   -5.9177   -0.8036 H   0  0  0  1  0  0  0  0  0  0  0  0
   12.0820   -6.1680    1.1356 O   0  0  0  1  0  0  0  0  0  0  0  0
   12.3250   -7.0427    0.8235 H   0  0  0  1  0  0  0  0  0  0  0  0
   11.3286   -4.9026    0.1116 C   0  0  0  1  0  0  0  0  0  0  0  0
   10.7269   -5.4292    0.8226 H   0  0  0  1  0  0  0  0  0  0  0  0
   10.6777   -5.2175   -1.1168 O   0  0  0  1  0  0  0  0  0  0  0  0
    9.7278   -5.2385   -0.9800 H   0  0  0  1  0  0  0  0  0  0  0  0
   11.2673   -4.0870    0.2195 C   0  0  0  1  0  0  0  0  0  0  0  0
   10.6214   -3.6912   -0.5362 H   0  0  0  1  0  0  0  0  0  0  0  0
   12.6911   -3.9741    0.1755 C   0  0  0  1  0  0  0  0  0  0  0  0
   13.3803   -3.6153    0.9112 H   0  0  0  1  0  0  0  0  0  0  0  0
   13.1877   -3.4156   -1.0101 O   0  0  0  1  0  0  0  0  0  0  0  0
   12.6080   -3.6455   -1.7400 H   0  0  0  1  0  0  0  0  0  0  0  0
   13.6315   -5.3445    1.1587 N   0  0  0  1  0  0  0  0  0  0  0  0
   13.4030   -5.1866    2.0985 H   0  0  0  1  0  0  0  0  0  0  0  0
   11.9491   -3.6232    0.2513 O   0  0  0  1  0  0  0  0  0  0  0  0
   12.7525   -4.7897    0.0676 C   0  0  0  1  0  0  0  0  0  0  0  0
   13.3559   -4.9876   -0.7935 H   0  0  0  1  0  0  0  0  0  0  0  0
   10.4462   -3.7937    1.4424 C   0  0  0  1  0  0  0  0  0  0  0  0
    9.5017   -4.2923    1.3765 H   0  0  0  1  0  0  0  0  0  0  0  0
   10.2880   -2.7393    1.5319 H   0  0  0  1  0  0  0  0  0  0  0  0
   11.1698   -4.2727    2.5669 O   0  0  0  1  0  0  0  0  0  0  0  0
   12.1067   -4.2957    2.3590 H   0  0  0  1  0  0  0  0  0  0  0  0
   14.7108   -6.0440    0.8506 C   0  0  0  1  0  0  0  0  0  0  0  0
   15.0064   -6.2733   -0.3215 O   0  0  0  1  0  0  0  0  0  0  0  0
   15.5760   -6.5567    1.9854 C   0  0  0  1  0  0  0  0  0  0  0  0
   15.1393   -7.4436    2.3948 H   0  0  0  1  0  0  0  0  0  0  0  0
   15.6445   -5.8087    2.7474 H   0  0  0  1  0  0  0  0  0  0  0  0
   16.5547   -6.7796    1.6147 H   0  0  0  1  0  0  0  0  0  0  0  0
  1  2  1  0  0  0  0
  1  3  1  0  0  0  0
  1  5  1  0  0  0  0
  1 18  1  0  0  0  0
  3  4  1  0  0  0  0
  5  6  1  0  0  0  0
  5  7  1  0  0  0  0
  5  9  1  0  0  0  0
  7  8  1  0  0  0  0
  9 10  1  0  0  0  0
  9 17  1  0  0  0  0
  9 20  1  0  0  0  0
 11 12  1  0  0  0  0
 11 13  1  0  0  0  0
 11 17  1  0  0  0  0
 11 18  1  0  0  0  0
 13 14  1  0  0  0  0
 15 16  1  0  0  0  0
 15 18  1  0  0  0  0
 15 25  1  0  0  0  0
 18 19  1  0  0  0  0
 20 21  1  0  0  0  0
 20 22  1  0  0  0  0
 20 23  1  0  0  0  0
 23 24  1  0  0  0  0
 25 26  2  0  0  0  0
 25 27  1  0  0  0  0
 27 28  1  0  0  0  0
 27 29  1  0  0  0  0
 27 30  1  0  0  0  0
M  END
> <ConfClashScore>
0.0461718 

> <ConfOneFourInteractionScore>
-0.968695 

> <ConfScore>
5.14771 

> <ConfScorePBest>
0.0107725 

> <ConfTolerance>
0.335604 

$$$$
L09.****
  PyMOL2.4          3D                             0

 30 30  0  0  0  0  0  0  0  0999 V2000
   11.8706   -5.3382    0.0366 C   0  0  0  1  0  0  0  0  0  0  0  0
   11.7758   -6.0995    0.7825 H   0  0  0  1  0  0  0  0  0  0  0  0
   12.0723   -6.1183   -1.1439 O   0  0  0  1  0  0  0  0  0  0  0  0
   12.8192   -6.7074   -1.0149 H   0  0  0  1  0  0  0  0  0  0  0  0
   11.1551   -4.9361   -0.0540 C   0  0  0  1  0  0  0  0  0  0  0  0
   10.6110   -5.3083   -0.8967 H   0  0  0  1  0  0  0  0  0  0  0  0
   10.3145   -5.3175    1.0322 O   0  0  0  1  0  0  0  0  0  0  0  0
   10.7932   -5.2176    1.8583 H   0  0  0  1  0  0  0  0  0  0  0  0
   11.1398   -4.1115   -0.0334 C   0  0  0  1  0  0  0  0  0  0  0  0
   10.3887   -3.7710    0.6484 H   0  0  0  1  0  0  0  0  0  0  0  0
   12.5544   -4.0902    0.1681 C   0  0  0  1  0  0  0  0  0  0  0  0
   13.1465   -3.6922    0.9655 H   0  0  0  1  0  0  0  0  0  0  0  0
   13.3317   -3.7904   -0.9796 O   0  0  0  1  0  0  0  0  0  0  0  0
   13.5128   -2.8480   -1.0068 H   0  0  0  1  0  0  0  0  0  0  0  0
   13.1204   -5.3099    1.4473 N   0  0  0  1  0  0  0  0  0  0  0  0
   12.5035   -5.4946    2.1860 H   0  0  0  1  0  0  0  0  0  0  0  0
   11.8399   -3.6890    0.0777 O   0  0  0  1  0  0  0  0  0  0  0  0
   12.5697   -4.9148    0.1476 C   0  0  0  1  0  0  0  0  0  0  0  0
   13.3308   -5.2615   -0.5198 H   0  0  0  1  0  0  0  0  0  0  0  0
   10.5827   -3.6170   -1.3400 C   0  0  0  1  0  0  0  0  0  0  0  0
    9.6727   -4.1409   -1.5454 H   0  0  0  1  0  0  0  0  0  0  0  0
   11.2933   -3.8181   -2.1143 H   0  0  0  1  0  0  0  0  0  0  0  0
   10.3115   -2.2217   -1.3211 O   0  0  0  1  0  0  0  0  0  0  0  0
   10.5457   -1.8382   -2.1694 H   0  0  0  1  0  0  0  0  0  0  0  0
   14.4398   -5.4276    1.6607 C   0  0  0  1  0  0  0  0  0  0  0  0
   15.2834   -5.1542    0.8079 O   0  0  0  1  0  0  0  0  0  0  0  0
   14.8430   -5.9249    3.0353 C   0  0  0  1  0  0  0  0  0  0  0  0
   14.7742   -6.9923    3.0632 H   0  0  0  1  0  0  0  0  0  0  0  0
   14.1893   -5.5062    3.7717 H   0  0  0  1  0  0  0  0  0  0  0  0
   15.8499   -5.6271    3.2409 H   0  0  0  1  0  0  0  0  0  0  0  0
  1  2  1  0  0  0  0
  1  3  1  0  0  0  0
  1  5  1  0  0  0  0
  1 18  1  0  0  0  0
  3  4  1  0  0  0  0
  5  6  1  0  0  0  0
  5  7  1  0  0  0  0
  5  9  1  0  0  0  0
  7  8  1  0  0  0  0
  9 10  1  0  0  0  0
  9 17  1  0  0  0  0
  9 20  1  0  0  0  0
 11 12  1  0  0  0  0
 11 13  1  0  0  0  0
 11 17  1  0  0  0  0
 11 18  1  0  0  0  0
 13 14  1  0  0  0  0
 15 16  1  0  0  0  0
 15 18  1  0  0  0  0
 15 25  1  0  0  0  0
 18 19  1  0  0  0  0
 20 21  1  0  0  0  0
 20 22  1  0  0  0  0
 20 23  1  0  0  0  0
 23 24  1  0  0  0  0
 25 26  2  0  0  0  0
 25 27  1  0  0  0  0
 27 28  1  0  0  0  0
 27 29  1  0  0  0  0
 27 30  1  0  0  0  0
M  END
> <ConfClashScore>
0.0462916 

> <ConfOneFourInteractionScore>
-0.95717 

> <ConfScore>
5.1565 

> <ConfScorePBest>
0.0106695 

> <ConfTolerance>
0.63604 

$$$$
L09.****
  PyMOL2.4          3D                             0

 30 30  0  0  0  0  0  0  0  0999 V2000
   12.0816   -5.2216    0.4061 C   0  0  0  1  0  0  0  0  0  0  0  0
   12.1130   -5.7315    1.3463 H   0  0  0  1  0  0  0  0  0  0  0  0
   12.2092   -6.3043   -0.5191 O   0  0  0  1  0  0  0  0  0  0  0  0
   11.8756   -7.1100   -0.1175 H   0  0  0  1  0  0  0  0  0  0  0  0
   11.3325   -4.9015    0.2711 C   0  0  0  1  0  0  0  0  0  0  0  0
   10.6521   -5.1433    1.0608 H   0  0  0  1  0  0  0  0  0  0  0  0
   10.7923   -5.6287   -0.8295 O   0  0  0  1  0  0  0  0  0  0  0  0
    9.8352   -5.5546   -0.8236 H   0  0  0  1  0  0  0  0  0  0  0  0
   11.2564   -4.1151    0.0338 C   0  0  0  1  0  0  0  0  0  0  0  0
   10.6281   -4.0498   -0.8298 H   0  0  0  1  0  0  0  0  0  0  0  0
   12.6774   -3.9678    0.0662 C   0  0  0  1  0  0  0  0  0  0  0  0
   13.3018   -3.3110    0.6352 H   0  0  0  1  0  0  0  0  0  0  0  0
   13.2903   -3.9641   -1.1977 O   0  0  0  1  0  0  0  0  0  0  0  0
   12.8315   -3.3490   -1.7745 H   0  0  0  1  0  0  0  0  0  0  0  0
   13.4914   -4.7824    1.5303 N   0  0  0  1  0  0  0  0  0  0  0  0
   13.4540   -3.9858    2.0999 H   0  0  0  1  0  0  0  0  0  0  0  0
   11.9294   -3.6486   -0.0685 O   0  0  0  1  0  0  0  0  0  0  0  0
   12.7535   -4.7543    0.3035 C   0  0  0  1  0  0  0  0  0  0  0  0
   13.4334   -5.2555   -0.3533 H   0  0  0  1  0  0  0  0  0  0  0  0
   10.4440   -3.3449    1.0351 C   0  0  0  1  0  0  0  0  0  0  0  0
   11.0043   -3.2372    1.9403 H   0  0  0  1  0  0  0  0  0  0  0  0
    9.5358   -3.8730    1.2379 H   0  0  0  1  0  0  0  0  0  0  0  0
   10.1358   -2.0560    0.5130 O   0  0  0  1  0  0  0  0  0  0  0  0
   10.4906   -1.9769   -0.3755 H   0  0  0  1  0  0  0  0  0  0  0  0
   14.2304   -5.8172    1.9587 C   0  0  0  1  0  0  0  0  0  0  0  0
   14.2399   -6.9116    1.3967 O   0  0  0  1  0  0  0  0  0  0  0  0
   15.0726   -5.5593    3.2014 C   0  0  0  1  0  0  0  0  0  0  0  0
   16.1091   -5.6694    2.9596 H   0  0  0  1  0  0  0  0  0  0  0  0
   14.8079   -6.2621    3.9636 H   0  0  0  1  0  0  0  0  0  0  0  0
   14.8925   -4.5652    3.5541 H   0  0  0  1  0  0  0  0  0  0  0  0
  1  2  1  0  0  0  0
  1  3  1  0  0  0  0
  1  5  1  0  0  0  0
  1 18  1  0  0  0  0
  3  4  1  0  0  0  0
  5  6  1  0  0  0  0
  5  7  1  0  0  0  0
  5  9  1  0  0  0  0
  7  8  1  0  0  0  0
  9 10  1  0  0  0  0
  9 17  1  0  0  0  0
  9 20  1  0  0  0  0
 11 12  1  0  0  0  0
 11 13  1  0  0  0  0
 11 17  1  0  0  0  0
 11 18  1  0  0  0  0
 13 14  1  0  0  0  0
 15 16  1  0  0  0  0
 15 18  1  0  0  0  0
 15 25  1  0  0  0  0
 18 19  1  0  0  0  0
 20 21  1  0  0  0  0
 20 22  1  0  0  0  0
 20 23  1  0  0  0  0
 23 24  1  0  0  0  0
 25 26  2  0  0  0  0
 25 27  1  0  0  0  0
 27 28  1  0  0  0  0
 27 29  1  0  0  0  0
 27 30  1  0  0  0  0
M  END
> <ConfClashScore>
0.0466471 

> <ConfOneFourInteractionScore>
-0.95717 

> <ConfScore>
5.18766 

> <ConfScorePBest>
0.0105665 

> <ConfTolerance>
0.598142 

$$$$
L09.****
  PyMOL2.4          3D                             0

 30 30  0  0  0  0  0  0  0  0999 V2000
   12.0030   -5.2626    0.1831 C   0  0  0  1  0  0  0  0  0  0  0  0
   11.9236   -5.9641    0.9873 H   0  0  0  1  0  0  0  0  0  0  0  0
   12.2564   -6.1124   -0.9386 O   0  0  0  1  0  0  0  0  0  0  0  0
   11.6966   -6.8904   -0.8843 H   0  0  0  1  0  0  0  0  0  0  0  0
   11.2726   -4.9226    0.0021 C   0  0  0  1  0  0  0  0  0  0  0  0
   10.8193   -5.4356   -0.8201 H   0  0  0  1  0  0  0  0  0  0  0  0
   10.3802   -5.2439    1.0662 O   0  0  0  1  0  0  0  0  0  0  0  0
   10.3133   -6.1978    1.1512 H   0  0  0  1  0  0  0  0  0  0  0  0
   11.2120   -4.1064   -0.1022 C   0  0  0  1  0  0  0  0  0  0  0  0
   10.4274   -3.7235    0.5164 H   0  0  0  1  0  0  0  0  0  0  0  0
   12.6109   -3.9696    0.1552 C   0  0  0  1  0  0  0  0  0  0  0  0
   13.1161   -3.4328    0.9309 H   0  0  0  1  0  0  0  0  0  0  0  0
   13.4497   -3.7659   -0.9530 O   0  0  0  1  0  0  0  0  0  0  0  0
   13.5123   -2.8262   -1.1391 H   0  0  0  1  0  0  0  0  0  0  0  0
   13.2234   -4.9643    1.5943 N   0  0  0  1  0  0  0  0  0  0  0  0
   14.1422   -5.2980    1.6638 H   0  0  0  1  0  0  0  0  0  0  0  0
   11.8816   -3.6304   -0.0255 O   0  0  0  1  0  0  0  0  0  0  0  0
   12.6716   -4.7857    0.2595 C   0  0  0  1  0  0  0  0  0  0  0  0
   13.4653   -5.1719   -0.3452 H   0  0  0  1  0  0  0  0  0  0  0  0
   10.6937   -3.7320   -1.4634 C   0  0  0  1  0  0  0  0  0  0  0  0
    9.7944   -4.2806   -1.6512 H   0  0  0  1  0  0  0  0  0  0  0  0
   11.4301   -3.9922   -2.1947 H   0  0  0  1  0  0  0  0  0  0  0  0
   10.4123   -2.3442   -1.5738 O   0  0  0  1  0  0  0  0  0  0  0  0
    9.6569   -2.2154   -2.1521 H   0  0  0  1  0  0  0  0  0  0  0  0
   12.5717   -4.7076    2.7320 C   0  0  0  1  0  0  0  0  0  0  0  0
   11.4180   -4.2875    2.7617 O   0  0  0  1  0  0  0  0  0  0  0  0
   13.3475   -4.9678    4.0086 C   0  0  0  1  0  0  0  0  0  0  0  0
   13.9452   -4.1122    4.2440 H   0  0  0  1  0  0  0  0  0  0  0  0
   13.9814   -5.8191    3.8732 H   0  0  0  1  0  0  0  0  0  0  0  0
   12.6632   -5.1558    4.8094 H   0  0  0  1  0  0  0  0  0  0  0  0
  1  2  1  0  0  0  0
  1  3  1  0  0  0  0
  1  5  1  0  0  0  0
  1 18  1  0  0  0  0
  3  4  1  0  0  0  0
  5  6  1  0  0  0  0
  5  7  1  0  0  0  0
  5  9  1  0  0  0  0
  7  8  1  0  0  0  0
  9 10  1  0  0  0  0
  9 17  1  0  0  0  0
  9 20  1  0  0  0  0
 11 12  1  0  0  0  0
 11 13  1  0  0  0  0
 11 17  1  0  0  0  0
 11 18  1  0  0  0  0
 13 14  1  0  0  0  0
 15 16  1  0  0  0  0
 15 18  1  0  0  0  0
 15 25  1  0  0  0  0
 18 19  1  0  0  0  0
 20 21  1  0  0  0  0
 20 22  1  0  0  0  0
 20 23  1  0  0  0  0
 23 24  1  0  0  0  0
 25 26  2  0  0  0  0
 25 27  1  0  0  0  0
 27 28  1  0  0  0  0
 27 29  1  0  0  0  0
 27 30  1  0  0  0  0
M  END
> <ConfClashScore>
0.0460744 

> <ConfOneFourInteractionScore>
-0.964066 

> <ConfScore>
5.20554 

> <ConfScorePBest>
0.0104635 

> <ConfTolerance>
0.488322 

$$$$
L09.****
  PyMOL2.4          3D                             0

 30 30  0  0  0  0  0  0  0  0999 V2000
   12.0597   -5.3756    0.1045 C   0  0  0  1  0  0  0  0  0  0  0  0
   12.1246   -6.3447   -0.3445 H   0  0  0  1  0  0  0  0  0  0  0  0
   12.2762   -5.6846    1.4838 O   0  0  0  1  0  0  0  0  0  0  0  0
   12.1958   -4.8843    2.0079 H   0  0  0  1  0  0  0  0  0  0  0  0
   11.2864   -5.0899    0.0573 C   0  0  0  1  0  0  0  0  0  0  0  0
   10.8107   -5.1958    1.0099 H   0  0  0  1  0  0  0  0  0  0  0  0
   10.4965   -5.9670   -0.7418 O   0  0  0  1  0  0  0  0  0  0  0  0
    9.5656   -5.7982   -0.5785 H   0  0  0  1  0  0  0  0  0  0  0  0
   11.1436   -4.3326   -0.2370 C   0  0  0  1  0  0  0  0  0  0  0  0
   10.3707   -4.3519   -0.9768 H   0  0  0  1  0  0  0  0  0  0  0  0
   12.5461   -4.1459   -0.4372 C   0  0  0  1  0  0  0  0  0  0  0  0
   13.0749   -3.9816   -1.3528 H   0  0  0  1  0  0  0  0  0  0  0  0
   13.2378   -3.3191    0.4584 O   0  0  0  1  0  0  0  0  0  0  0  0
   13.9467   -2.8670   -0.0050 H   0  0  0  1  0  0  0  0  0  0  0  0
   13.4237   -5.6764   -1.1328 N   0  0  0  1  0  0  0  0  0  0  0  0
   14.3430   -5.9503   -0.9319 H   0  0  0  1  0  0  0  0  0  0  0  0
   11.7740   -3.8610   -0.4842 O   0  0  0  1  0  0  0  0  0  0  0  0
   12.6889   -4.9032   -0.1429 C   0  0  0  1  0  0  0  0  0  0  0  0
   13.4139   -4.8442    0.6419 H   0  0  0  1  0  0  0  0  0  0  0  0
   10.4932   -3.5150    0.8448 C   0  0  0  1  0  0  0  0  0  0  0  0
   10.3932   -2.5069    0.5002 H   0  0  0  1  0  0  0  0  0  0  0  0
   11.1181   -3.5352    1.7131 H   0  0  0  1  0  0  0  0  0  0  0  0
    9.2077   -4.0058    1.1970 O   0  0  0  1  0  0  0  0  0  0  0  0
    8.7829   -4.3776    0.4205 H   0  0  0  1  0  0  0  0  0  0  0  0
   12.8842   -6.0289   -2.3160 C   0  0  0  1  0  0  0  0  0  0  0  0
   11.7719   -5.6806   -2.7099 O   0  0  0  1  0  0  0  0  0  0  0  0
   13.7818   -6.9179   -3.1545 C   0  0  0  1  0  0  0  0  0  0  0  0
   13.3110   -7.1156   -4.0948 H   0  0  0  1  0  0  0  0  0  0  0  0
   13.9510   -7.8405   -2.6397 H   0  0  0  1  0  0  0  0  0  0  0  0
   14.7168   -6.4249   -3.3207 H   0  0  0  1  0  0  0  0  0  0  0  0
  1  2  1  0  0  0  0
  1  3  1  0  0  0  0
  1  5  1  0  0  0  0
  1 18  1  0  0  0  0
  3  4  1  0  0  0  0
  5  6  1  0  0  0  0
  5  7  1  0  0  0  0
  5  9  1  0  0  0  0
  7  8  1  0  0  0  0
  9 10  1  0  0  0  0
  9 17  1  0  0  0  0
  9 20  1  0  0  0  0
 11 12  1  0  0  0  0
 11 13  1  0  0  0  0
 11 17  1  0  0  0  0
 11 18  1  0  0  0  0
 13 14  1  0  0  0  0
 15 16  1  0  0  0  0
 15 18  1  0  0  0  0
 15 25  1  0  0  0  0
 18 19  1  0  0  0  0
 20 21  1  0  0  0  0
 20 22  1  0  0  0  0
 20 23  1  0  0  0  0
 23 24  1  0  0  0  0
 25 26  2  0  0  0  0
 25 27  1  0  0  0  0
 27 28  1  0  0  0  0
 27 29  1  0  0  0  0
 27 30  1  0  0  0  0
M  END
> <ConfClashScore>
0.0460235 

> <ConfOneFourInteractionScore>
-0.96336 

> <ConfScore>
5.26266 

> <ConfScorePBest>
0.0103605 

> <ConfTolerance>
0.711965 

$$$$
L09.****
  PyMOL2.4          3D                             0

 30 30  0  0  0  0  0  0  0  0999 V2000
   12.0694   -5.2719    0.1505 C   0  0  0  1  0  0  0  0  0  0  0  0
   12.2758   -6.1084   -0.4841 H   0  0  0  1  0  0  0  0  0  0  0  0
   12.1075   -5.8718    1.4479 O   0  0  0  1  0  0  0  0  0  0  0  0
   11.5726   -6.6690    1.4482 H   0  0  0  1  0  0  0  0  0  0  0  0
   11.2943   -5.0078    0.0444 C   0  0  0  1  0  0  0  0  0  0  0  0
   10.6466   -5.4109    0.7946 H   0  0  0  1  0  0  0  0  0  0  0  0
   10.8583   -5.6980   -1.1241 O   0  0  0  1  0  0  0  0  0  0  0  0
    9.9013   -5.7726   -1.1138 H   0  0  0  1  0  0  0  0  0  0  0  0
   11.1446   -4.2053   -0.0747 C   0  0  0  1  0  0  0  0  0  0  0  0
   10.5231   -4.0696   -0.9351 H   0  0  0  1  0  0  0  0  0  0  0  0
   12.5438   -3.9303    0.0181 C   0  0  0  1  0  0  0  0  0  0  0  0
   13.0435   -3.3411    0.7584 H   0  0  0  1  0  0  0  0  0  0  0  0
   13.2647   -3.6123   -1.1402 O   0  0  0  1  0  0  0  0  0  0  0  0
   14.0154   -3.0605   -0.9090 H   0  0  0  1  0  0  0  0  0  0  0  0
   13.7208   -5.1984   -0.8177 N   0  0  0  1  0  0  0  0  0  0  0  0
   13.4360   -5.5260   -1.6963 H   0  0  0  1  0  0  0  0  0  0  0  0
   11.7699   -3.6669   -0.0878 O   0  0  0  1  0  0  0  0  0  0  0  0
   12.6936   -4.7328    0.1372 C   0  0  0  1  0  0  0  0  0  0  0  0
   13.2357   -4.8340    1.0542 H   0  0  0  1  0  0  0  0  0  0  0  0
   10.2482   -3.6762    1.0076 C   0  0  0  1  0  0  0  0  0  0  0  0
   10.0728   -2.6331    0.8459 H   0  0  0  1  0  0  0  0  0  0  0  0
   10.7181   -3.8161    1.9587 H   0  0  0  1  0  0  0  0  0  0  0  0
    9.0101   -4.3720    0.9860 O   0  0  0  1  0  0  0  0  0  0  0  0
    8.3016   -3.7590    0.7764 H   0  0  0  1  0  0  0  0  0  0  0  0
   15.0244   -5.1882   -0.5249 C   0  0  0  1  0  0  0  0  0  0  0  0
   15.4598   -4.8755    0.5824 O   0  0  0  1  0  0  0  0  0  0  0  0
   15.9558   -5.5904   -1.6519 C   0  0  0  1  0  0  0  0  0  0  0  0
   16.6691   -6.3008   -1.2894 H   0  0  0  1  0  0  0  0  0  0  0  0
   16.4685   -4.7249   -2.0165 H   0  0  0  1  0  0  0  0  0  0  0  0
   15.3871   -6.0292   -2.4449 H   0  0  0  1  0  0  0  0  0  0  0  0
  1  2  1  0  0  0  0
  1  3  1  0  0  0  0
  1  5  1  0  0  0  0
  1 18  1  0  0  0  0
  3  4  1  0  0  0  0
  5  6  1  0  0  0  0
  5  7  1  0  0  0  0
  5  9  1  0  0  0  0
  7  8  1  0  0  0  0
  9 10  1  0  0  0  0
  9 17  1  0  0  0  0
  9 20  1  0  0  0  0
 11 12  1  0  0  0  0
 11 13  1  0  0  0  0
 11 17  1  0  0  0  0
 11 18  1  0  0  0  0
 13 14  1  0  0  0  0
 15 16  1  0  0  0  0
 15 18  1  0  0  0  0
 15 25  1  0  0  0  0
 18 19  1  0  0  0  0
 20 21  1  0  0  0  0
 20 22  1  0  0  0  0
 20 23  1  0  0  0  0
 23 24  1  0  0  0  0
 25 26  2  0  0  0  0
 25 27  1  0  0  0  0
 27 28  1  0  0  0  0
 27 29  1  0  0  0  0
 27 30  1  0  0  0  0
M  END
> <ConfClashScore>
0.0470483 

> <ConfOneFourInteractionScore>
-0.953051 

> <ConfScore>
5.29663 

> <ConfScorePBest>
0.0102575 

> <ConfTolerance>
0.25 

$$$$
L09.****
  PyMOL2.4          3D                             0

 30 30  0  0  0  0  0  0  0  0999 V2000
   12.0226   -5.2148    0.2732 C   0  0  0  1  0  0  0  0  0  0  0  0
   12.2644   -5.5236    1.2688 H   0  0  0  1  0  0  0  0  0  0  0  0
   12.0032   -6.4682   -0.4130 O   0  0  0  1  0  0  0  0  0  0  0  0
   12.2184   -7.1734    0.2017 H   0  0  0  1  0  0  0  0  0  0  0  0
   11.2679   -4.8801    0.2580 C   0  0  0  1  0  0  0  0  0  0  0  0
   10.8088   -4.9278    1.2233 H   0  0  0  1  0  0  0  0  0  0  0  0
   10.4952   -5.8210   -0.4833 O   0  0  0  1  0  0  0  0  0  0  0  0
    9.6343   -5.9240   -0.0712 H   0  0  0  1  0  0  0  0  0  0  0  0
   11.1515   -4.1404   -0.0881 C   0  0  0  1  0  0  0  0  0  0  0  0
   10.3717   -4.2160   -0.8169 H   0  0  0  1  0  0  0  0  0  0  0  0
   12.5433   -4.0692   -0.4041 C   0  0  0  1  0  0  0  0  0  0  0  0
   12.9901   -4.0339   -1.3757 H   0  0  0  1  0  0  0  0  0  0  0  0
   13.3741   -3.2209    0.3282 O   0  0  0  1  0  0  0  0  0  0  0  0
   13.9258   -2.7152   -0.2731 H   0  0  0  1  0  0  0  0  0  0  0  0
   13.7245   -4.6977    0.9486 N   0  0  0  1  0  0  0  0  0  0  0  0
   13.4862   -4.4347    1.8620 H   0  0  0  1  0  0  0  0  0  0  0  0
   11.7898   -3.7353   -0.4191 O   0  0  0  1  0  0  0  0  0  0  0  0
   12.6597   -4.8089   -0.0579 C   0  0  0  1  0  0  0  0  0  0  0  0
   13.1370   -5.4477   -0.7715 H   0  0  0  1  0  0  0  0  0  0  0  0
   10.5468   -3.1199    0.8471 C   0  0  0  1  0  0  0  0  0  0  0  0
    9.5165   -3.3561    1.0129 H   0  0  0  1  0  0  0  0  0  0  0  0
   10.6242   -2.1466    0.4095 H   0  0  0  1  0  0  0  0  0  0  0  0
   11.2409   -3.1369    2.0875 O   0  0  0  1  0  0  0  0  0  0  0  0
   10.6154   -3.2722    2.8030 H   0  0  0  1  0  0  0  0  0  0  0  0
   15.0156   -4.9446    0.6596 C   0  0  0  1  0  0  0  0  0  0  0  0
   15.3936   -5.3172   -0.4480 O   0  0  0  1  0  0  0  0  0  0  0  0
   16.0014   -4.7330    1.8014 C   0  0  0  1  0  0  0  0  0  0  0  0
   15.5152   -4.9294    2.7341 H   0  0  0  1  0  0  0  0  0  0  0  0
   16.3510   -3.7218    1.7877 H   0  0  0  1  0  0  0  0  0  0  0  0
   16.8306   -5.3991    1.6845 H   0  0  0  1  0  0  0  0  0  0  0  0
  1  2  1  0  0  0  0
  1  3  1  0  0  0  0
  1  5  1  0  0  0  0
  1 18  1  0  0  0  0
  3  4  1  0  0  0  0
  5  6  1  0  0  0  0
  5  7  1  0  0  0  0
  5  9  1  0  0  0  0
  7  8  1  0  0  0  0
  9 10  1  0  0  0  0
  9 17  1  0  0  0  0
  9 20  1  0  0  0  0
 11 12  1  0  0  0  0
 11 13  1  0  0  0  0
 11 17  1  0  0  0  0
 11 18  1  0  0  0  0
 13 14  1  0  0  0  0
 15 16  1  0  0  0  0
 15 18  1  0  0  0  0
 15 25  1  0  0  0  0
 18 19  1  0  0  0  0
 20 21  1  0  0  0  0
 20 22  1  0  0  0  0
 20 23  1  0  0  0  0
 23 24  1  0  0  0  0
 25 26  2  0  0  0  0
 25 27  1  0  0  0  0
 27 28  1  0  0  0  0
 27 29  1  0  0  0  0
 27 30  1  0  0  0  0
M  END
> <ConfClashScore>
0.0464571 

> <ConfOneFourInteractionScore>
-0.967492 

> <ConfScore>
5.34076 

> <ConfScorePBest>
0.0101545 

> <ConfTolerance>
0.38699 

$$$$
L09.****
  PyMOL2.4          3D                             0

 30 30  0  0  0  0  0  0  0  0999 V2000
   11.9857   -5.2349   -0.1052 C   0  0  0  1  0  0  0  0  0  0  0  0
   12.1835   -5.8515   -0.9570 H   0  0  0  1  0  0  0  0  0  0  0  0
   11.9192   -6.2009    0.9469 O   0  0  0  1  0  0  0  0  0  0  0  0
   12.1702   -7.0629    0.6069 H   0  0  0  1  0  0  0  0  0  0  0  0
   11.2327   -4.8997   -0.1545 C   0  0  0  1  0  0  0  0  0  0  0  0
   10.7556   -5.1941   -1.0659 H   0  0  0  1  0  0  0  0  0  0  0  0
   10.4159   -5.5478    0.8175 O   0  0  0  1  0  0  0  0  0  0  0  0
   10.0137   -6.3282    0.4291 H   0  0  0  1  0  0  0  0  0  0  0  0
   11.1320   -4.0907   -0.0280 C   0  0  0  1  0  0  0  0  0  0  0  0
   10.3878   -3.9487    0.7276 H   0  0  0  1  0  0  0  0  0  0  0  0
   12.5363   -3.9512    0.1971 C   0  0  0  1  0  0  0  0  0  0  0  0
   13.0477   -3.6295    1.0802 H   0  0  0  1  0  0  0  0  0  0  0  0
   13.3428   -3.4179   -0.8271 O   0  0  0  1  0  0  0  0  0  0  0  0
   14.0662   -2.9201   -0.4390 H   0  0  0  1  0  0  0  0  0  0  0  0
   13.6559   -4.9801   -1.0188 N   0  0  0  1  0  0  0  0  0  0  0  0
   13.3740   -4.9897   -1.9573 H   0  0  0  1  0  0  0  0  0  0  0  0
   11.7844   -3.6169    0.1478 O   0  0  0  1  0  0  0  0  0  0  0  0
   12.6369   -4.7602    0.0706 C   0  0  0  1  0  0  0  0  0  0  0  0
   13.1577   -5.1802    0.9056 H   0  0  0  1  0  0  0  0  0  0  0  0
   10.5047   -3.3227   -1.1587 C   0  0  0  1  0  0  0  0  0  0  0  0
    9.5997   -3.8151   -1.4477 H   0  0  0  1  0  0  0  0  0  0  0  0
   11.1846   -3.3113   -1.9849 H   0  0  0  1  0  0  0  0  0  0  0  0
   10.2000   -1.9824   -0.8008 O   0  0  0  1  0  0  0  0  0  0  0  0
   10.3657   -1.8553    0.1362 H   0  0  0  1  0  0  0  0  0  0  0  0
   14.9423   -5.1620   -0.7072 C   0  0  0  1  0  0  0  0  0  0  0  0
   15.3608   -5.1417    0.4495 O   0  0  0  1  0  0  0  0  0  0  0  0
   15.8764   -5.3991   -1.8779 C   0  0  0  1  0  0  0  0  0  0  0  0
   15.5034   -4.8892   -2.7414 H   0  0  0  1  0  0  0  0  0  0  0  0
   15.9344   -6.4481   -2.0808 H   0  0  0  1  0  0  0  0  0  0  0  0
   16.8506   -5.0274   -1.6375 H   0  0  0  1  0  0  0  0  0  0  0  0
  1  2  1  0  0  0  0
  1  3  1  0  0  0  0
  1  5  1  0  0  0  0
  1 18  1  0  0  0  0
  3  4  1  0  0  0  0
  5  6  1  0  0  0  0
  5  7  1  0  0  0  0
  5  9  1  0  0  0  0
  7  8  1  0  0  0  0
  9 10  1  0  0  0  0
  9 17  1  0  0  0  0
  9 20  1  0  0  0  0
 11 12  1  0  0  0  0
 11 13  1  0  0  0  0
 11 17  1  0  0  0  0
 11 18  1  0  0  0  0
 13 14  1  0  0  0  0
 15 16  1  0  0  0  0
 15 18  1  0  0  0  0
 15 25  1  0  0  0  0
 18 19  1  0  0  0  0
 20 21  1  0  0  0  0
 20 22  1  0  0  0  0
 20 23  1  0  0  0  0
 23 24  1  0  0  0  0
 25 26  2  0  0  0  0
 25 27  1  0  0  0  0
 27 28  1  0  0  0  0
 27 29  1  0  0  0  0
 27 30  1  0  0  0  0
M  END
> <ConfClashScore>
0.0490581 

> <ConfOneFourInteractionScore>
-0.968695 

> <ConfScore>
5.4025 

> <ConfScorePBest>
0.0100515 

> <ConfTolerance>
0.262202 

$$$$
L09.****
  PyMOL2.4          3D                             0

 30 30  0  0  0  0  0  0  0  0999 V2000
   12.0528   -5.2049    0.3345 C   0  0  0  1  0  0  0  0  0  0  0  0
   12.2047   -5.4093    1.3738 H   0  0  0  1  0  0  0  0  0  0  0  0
   11.9822   -6.5279   -0.2034 O   0  0  0  1  0  0  0  0  0  0  0  0
   12.3043   -7.1560    0.4472 H   0  0  0  1  0  0  0  0  0  0  0  0
   11.3090   -4.8643    0.2221 C   0  0  0  1  0  0  0  0  0  0  0  0
   10.7704   -4.8083    1.1450 H   0  0  0  1  0  0  0  0  0  0  0  0
   10.5812   -5.8659   -0.4843 O   0  0  0  1  0  0  0  0  0  0  0  0
    9.6444   -5.6574   -0.4613 H   0  0  0  1  0  0  0  0  0  0  0  0
   11.2370   -4.1620   -0.2048 C   0  0  0  1  0  0  0  0  0  0  0  0
   10.4798   -4.2577   -0.9547 H   0  0  0  1  0  0  0  0  0  0  0  0
   12.6514   -4.1401   -0.4073 C   0  0  0  1  0  0  0  0  0  0  0  0
   13.1962   -4.1899   -1.3269 H   0  0  0  1  0  0  0  0  0  0  0  0
   13.4127   -3.2318    0.3407 O   0  0  0  1  0  0  0  0  0  0  0  0
   13.0336   -2.3535    0.2605 H   0  0  0  1  0  0  0  0  0  0  0  0
   13.3453   -5.8006   -0.8801 N   0  0  0  1  0  0  0  0  0  0  0  0
   12.8706   -6.0945   -1.6855 H   0  0  0  1  0  0  0  0  0  0  0  0
   11.9088   -3.8004   -0.5193 O   0  0  0  1  0  0  0  0  0  0  0  0
   12.7234   -4.8424    0.0197 C   0  0  0  1  0  0  0  0  0  0  0  0
   13.4772   -4.7418    0.7724 H   0  0  0  1  0  0  0  0  0  0  0  0
   10.6147   -3.1237    0.7011 C   0  0  0  1  0  0  0  0  0  0  0  0
   10.5932   -2.1866    0.1852 H   0  0  0  1  0  0  0  0  0  0  0  0
   11.2150   -3.0327    1.5822 H   0  0  0  1  0  0  0  0  0  0  0  0
    9.2901   -3.4630    1.0853 O   0  0  0  1  0  0  0  0  0  0  0  0
    8.9661   -2.8204    1.7207 H   0  0  0  1  0  0  0  0  0  0  0  0
   14.5745   -6.2860   -0.6084 C   0  0  0  1  0  0  0  0  0  0  0  0
   15.1937   -5.9235    0.3884 O   0  0  0  1  0  0  0  0  0  0  0  0
   15.1698   -7.2913   -1.5680 C   0  0  0  1  0  0  0  0  0  0  0  0
   15.5247   -8.1400   -1.0215 H   0  0  0  1  0  0  0  0  0  0  0  0
   15.9844   -6.8411   -2.0958 H   0  0  0  1  0  0  0  0  0  0  0  0
   14.4215   -7.6043   -2.2659 H   0  0  0  1  0  0  0  0  0  0  0  0
  1  2  1  0  0  0  0
  1  3  1  0  0  0  0
  1  5  1  0  0  0  0
  1 18  1  0  0  0  0
  3  4  1  0  0  0  0
  5  6  1  0  0  0  0
  5  7  1  0  0  0  0
  5  9  1  0  0  0  0
  7  8  1  0  0  0  0
  9 10  1  0  0  0  0
  9 17  1  0  0  0  0
  9 20  1  0  0  0  0
 11 12  1  0  0  0  0
 11 13  1  0  0  0  0
 11 17  1  0  0  0  0
 11 18  1  0  0  0  0
 13 14  1  0  0  0  0
 15 16  1  0  0  0  0
 15 18  1  0  0  0  0
 15 25  1  0  0  0  0
 18 19  1  0  0  0  0
 20 21  1  0  0  0  0
 20 22  1  0  0  0  0
 20 23  1  0  0  0  0
 23 24  1  0  0  0  0
 25 26  2  0  0  0  0
 25 27  1  0  0  0  0
 27 28  1  0  0  0  0
 27 29  1  0  0  0  0
 27 30  1  0  0  0  0
M  END
> <ConfClashScore>
0.0480105 

> <ConfOneFourInteractionScore>
-0.95717 

> <ConfScore>
5.40864 

> <ConfScorePBest>
0.0099485 

> <ConfTolerance>
0.250934 

$$$$
L09.****
  PyMOL2.4          3D                             0

 30 30  0  0  0  0  0  0  0  0999 V2000
   11.9593   -5.3417    0.2386 C   0  0  0  1  0  0  0  0  0  0  0  0
   11.7800   -6.3806    0.0557 H   0  0  0  1  0  0  0  0  0  0  0  0
   12.3050   -5.3411    1.6260 O   0  0  0  1  0  0  0  0  0  0  0  0
   12.7704   -4.5291    1.8399 H   0  0  0  1  0  0  0  0  0  0  0  0
   11.2553   -4.9110    0.2114 C   0  0  0  1  0  0  0  0  0  0  0  0
   10.9050   -4.7267    1.2055 H   0  0  0  1  0  0  0  0  0  0  0  0
   10.2385   -5.7767   -0.2872 O   0  0  0  1  0  0  0  0  0  0  0  0
   10.4324   -6.0069   -1.1988 H   0  0  0  1  0  0  0  0  0  0  0  0
   11.2129   -4.2172   -0.2330 C   0  0  0  1  0  0  0  0  0  0  0  0
   10.4087   -4.3250   -0.9305 H   0  0  0  1  0  0  0  0  0  0  0  0
   12.5774   -4.3839   -0.6234 C   0  0  0  1  0  0  0  0  0  0  0  0
   13.0513   -4.4703   -1.5788 H   0  0  0  1  0  0  0  0  0  0  0  0
   13.4359   -3.5347    0.0863 O   0  0  0  1  0  0  0  0  0  0  0  0
   12.9174   -2.9039    0.5912 H   0  0  0  1  0  0  0  0  0  0  0  0
   13.0548   -6.1529   -1.0764 N   0  0  0  1  0  0  0  0  0  0  0  0
   12.4076   -6.7776   -1.4652 H   0  0  0  1  0  0  0  0  0  0  0  0
   11.8745   -3.9542   -0.6503 O   0  0  0  1  0  0  0  0  0  0  0  0
   12.6198   -5.0777   -0.1790 C   0  0  0  1  0  0  0  0  0  0  0  0
   13.4575   -5.0215    0.4843 H   0  0  0  1  0  0  0  0  0  0  0  0
   10.6727   -3.0827    0.5934 C   0  0  0  1  0  0  0  0  0  0  0  0
    9.6581   -3.3008    0.8542 H   0  0  0  1  0  0  0  0  0  0  0  0
   10.7068   -2.1864    0.0100 H   0  0  0  1  0  0  0  0  0  0  0  0
   11.4161   -2.8786    1.7863 O   0  0  0  1  0  0  0  0  0  0  0  0
   11.7569   -1.9813    1.8019 H   0  0  0  1  0  0  0  0  0  0  0  0
   14.3697   -6.2574   -1.3511 C   0  0  0  1  0  0  0  0  0  0  0  0
   15.2157   -5.4200   -1.0485 O   0  0  0  1  0  0  0  0  0  0  0  0
   14.7392   -7.5304   -2.0874 C   0  0  0  1  0  0  0  0  0  0  0  0
   14.8773   -8.3234   -1.3825 H   0  0  0  1  0  0  0  0  0  0  0  0
   15.6468   -7.3761   -2.6327 H   0  0  0  1  0  0  0  0  0  0  0  0
   13.9541   -7.7899   -2.7666 H   0  0  0  1  0  0  0  0  0  0  0  0
  1  2  1  0  0  0  0
  1  3  1  0  0  0  0
  1  5  1  0  0  0  0
  1 18  1  0  0  0  0
  3  4  1  0  0  0  0
  5  6  1  0  0  0  0
  5  7  1  0  0  0  0
  5  9  1  0  0  0  0
  7  8  1  0  0  0  0
  9 10  1  0  0  0  0
  9 17  1  0  0  0  0
  9 20  1  0  0  0  0
 11 12  1  0  0  0  0
 11 13  1  0  0  0  0
 11 17  1  0  0  0  0
 11 18  1  0  0  0  0
 13 14  1  0  0  0  0
 15 16  1  0  0  0  0
 15 18  1  0  0  0  0
 15 25  1  0  0  0  0
 18 19  1  0  0  0  0
 20 21  1  0  0  0  0
 20 22  1  0  0  0  0
 20 23  1  0  0  0  0
 23 24  1  0  0  0  0
 25 26  2  0  0  0  0
 25 27  1  0  0  0  0
 27 28  1  0  0  0  0
 27 29  1  0  0  0  0
 27 30  1  0  0  0  0
M  END
> <ConfClashScore>
0.0477595 

> <ConfOneFourInteractionScore>
-0.967492 

> <ConfScore>
5.41125 

> <ConfScorePBest>
0.0098455 

> <ConfTolerance>
0.558386 

$$$$
L09.****
  PyMOL2.4          3D                             0

 30 30  0  0  0  0  0  0  0  0999 V2000
   12.0195   -5.3329   -0.1365 C   0  0  0  1  0  0  0  0  0  0  0  0
   11.9496   -6.1654   -0.8051 H   0  0  0  1  0  0  0  0  0  0  0  0
   12.2828   -5.9896    1.0912 O   0  0  0  1  0  0  0  0  0  0  0  0
   12.5069   -6.9076    0.9219 H   0  0  0  1  0  0  0  0  0  0  0  0
   11.2884   -4.9510   -0.0980 C   0  0  0  1  0  0  0  0  0  0  0  0
   10.5516   -5.4770   -0.6684 H   0  0  0  1  0  0  0  0  0  0  0  0
   10.7989   -5.1065    1.2317 O   0  0  0  1  0  0  0  0  0  0  0  0
    9.8472   -4.9812    1.2395 H   0  0  0  1  0  0  0  0  0  0  0  0
   11.2399   -4.1383   -0.2309 C   0  0  0  1  0  0  0  0  0  0  0  0
   10.7166   -3.6735    0.5784 H   0  0  0  1  0  0  0  0  0  0  0  0
   12.6526   -4.0883   -0.4408 C   0  0  0  1  0  0  0  0  0  0  0  0
   13.2503   -3.7637   -1.2667 H   0  0  0  1  0  0  0  0  0  0  0  0
   13.3324   -3.5739    0.6706 O   0  0  0  1  0  0  0  0  0  0  0  0
   12.7316   -3.0386    1.1942 H   0  0  0  1  0  0  0  0  0  0  0  0
   13.3717   -5.4638   -1.4704 N   0  0  0  1  0  0  0  0  0  0  0  0
   12.8422   -5.6671   -2.2696 H   0  0  0  1  0  0  0  0  0  0  0  0
   11.9225   -3.7073   -0.4023 O   0  0  0  1  0  0  0  0  0  0  0  0
   12.7011   -4.9011   -0.3079 C   0  0  0  1  0  0  0  0  0  0  0  0
   13.4319   -5.0872    0.4512 H   0  0  0  1  0  0  0  0  0  0  0  0
   10.3334   -3.7912   -1.3766 C   0  0  0  1  0  0  0  0  0  0  0  0
   10.6993   -4.2503   -2.2712 H   0  0  0  1  0  0  0  0  0  0  0  0
   10.3113   -2.7290   -1.5035 H   0  0  0  1  0  0  0  0  0  0  0  0
    9.0207   -4.2619   -1.1074 O   0  0  0  1  0  0  0  0  0  0  0  0
    8.9566   -5.1887   -1.3495 H   0  0  0  1  0  0  0  0  0  0  0  0
   14.6843   -5.7127   -1.4861 C   0  0  0  1  0  0  0  0  0  0  0  0
   15.2609   -6.2064   -2.4543 O   0  0  0  1  0  0  0  0  0  0  0  0
   15.4392   -5.3472   -0.2229 C   0  0  0  1  0  0  0  0  0  0  0  0
   16.4903   -5.4559   -0.3909 H   0  0  0  1  0  0  0  0  0  0  0  0
   15.1367   -5.9950    0.5731 H   0  0  0  1  0  0  0  0  0  0  0  0
   15.2234   -4.3329    0.0404 H   0  0  0  1  0  0  0  0  0  0  0  0
  1  2  1  0  0  0  0
  1  3  1  0  0  0  0
  1  5  1  0  0  0  0
  1 18  1  0  0  0  0
  3  4  1  0  0  0  0
  5  6  1  0  0  0  0
  5  7  1  0  0  0  0
  5  9  1  0  0  0  0
  7  8  1  0  0  0  0
  9 10  1  0  0  0  0
  9 17  1  0  0  0  0
  9 20  1  0  0  0  0
 11 12  1  0  0  0  0
 11 13  1  0  0  0  0
 11 17  1  0  0  0  0
 11 18  1  0  0  0  0
 13 14  1  0  0  0  0
 15 16  1  0  0  0  0
 15 18  1  0  0  0  0
 15 25  1  0  0  0  0
 18 19  1  0  0  0  0
 20 21  1  0  0  0  0
 20 22  1  0  0  0  0
 20 23  1  0  0  0  0
 23 24  1  0  0  0  0
 25 26  2  0  0  0  0
 25 27  1  0  0  0  0
 27 28  1  0  0  0  0
 27 29  1  0  0  0  0
 27 30  1  0  0  0  0
M  END
> <ConfClashScore>
0.0445986 

> <ConfOneFourInteractionScore>
-0.953051 

> <ConfScore>
5.44985 

> <ConfScorePBest>
0.0097425 

> <ConfTolerance>
0.75812 

$$$$
L09.****
  PyMOL2.4          3D                             0

 30 30  0  0  0  0  0  0  0  0999 V2000
   11.9759   -5.2788   -0.1135 C   0  0  0  1  0  0  0  0  0  0  0  0
   12.0024   -6.1959   -0.6641 H   0  0  0  1  0  0  0  0  0  0  0  0
   12.0149   -5.7595    1.2327 O   0  0  0  1  0  0  0  0  0  0  0  0
   12.6883   -6.4391    1.3109 H   0  0  0  1  0  0  0  0  0  0  0  0
   11.2476   -4.9062   -0.2252 C   0  0  0  1  0  0  0  0  0  0  0  0
   10.6246   -5.4992   -0.8618 H   0  0  0  1  0  0  0  0  0  0  0  0
   10.5886   -5.0493    1.0306 O   0  0  0  1  0  0  0  0  0  0  0  0
   10.0280   -5.8284    1.0114 H   0  0  0  1  0  0  0  0  0  0  0  0
   11.2201   -4.1151   -0.4578 C   0  0  0  1  0  0  0  0  0  0  0  0
   10.5878   -4.0134   -1.3149 H   0  0  0  1  0  0  0  0  0  0  0  0
   12.6483   -4.0683   -0.4671 C   0  0  0  1  0  0  0  0  0  0  0  0
   13.2719   -3.9168   -1.3233 H   0  0  0  1  0  0  0  0  0  0  0  0
   13.3529   -3.3551    0.5248 O   0  0  0  1  0  0  0  0  0  0  0  0
   12.8741   -3.4035    1.3555 H   0  0  0  1  0  0  0  0  0  0  0  0
   13.4682   -5.5416   -1.2468 N   0  0  0  1  0  0  0  0  0  0  0  0
   13.0171   -5.8947   -2.0419 H   0  0  0  1  0  0  0  0  0  0  0  0
   11.9210   -3.6967   -0.5785 O   0  0  0  1  0  0  0  0  0  0  0  0
   12.6758   -4.8594   -0.2345 C   0  0  0  1  0  0  0  0  0  0  0  0
   13.3086   -4.9607    0.6223 H   0  0  0  1  0  0  0  0  0  0  0  0
   10.4300   -3.2509    0.5743 C   0  0  0  1  0  0  0  0  0  0  0  0
   11.0523   -3.0266    1.4153 H   0  0  0  1  0  0  0  0  0  0  0  0
    9.5606   -3.7803    0.9044 H   0  0  0  1  0  0  0  0  0  0  0  0
   10.0470   -2.0496   -0.0796 O   0  0  0  1  0  0  0  0  0  0  0  0
   10.3312   -1.2959    0.4426 H   0  0  0  1  0  0  0  0  0  0  0  0
   14.8193   -5.7070   -1.1271 C   0  0  0  1  0  0  0  0  0  0  0  0
   15.4279   -5.3523   -0.1340 O   0  0  0  1  0  0  0  0  0  0  0  0
   15.4529   -6.3575   -2.3246 C   0  0  0  1  0  0  0  0  0  0  0  0
   15.0420   -7.3363   -2.4587 H   0  0  0  1  0  0  0  0  0  0  0  0
   16.5094   -6.4323   -2.1723 H   0  0  0  1  0  0  0  0  0  0  0  0
   15.2586   -5.7670   -3.1955 H   0  0  0  1  0  0  0  0  0  0  0  0
  1  2  1  0  0  0  0
  1  3  1  0  0  0  0
  1  5  1  0  0  0  0
  1 18  1  0  0  0  0
  3  4  1  0  0  0  0
  5  6  1  0  0  0  0
  5  7  1  0  0  0  0
  5  9  1  0  0  0  0
  7  8  1  0  0  0  0
  9 10  1  0  0  0  0
  9 17  1  0  0  0  0
  9 20  1  0  0  0  0
 11 12  1  0  0  0  0
 11 13  1  0  0  0  0
 11 17  1  0  0  0  0
 11 18  1  0  0  0  0
 13 14  1  0  0  0  0
 15 16  1  0  0  0  0
 15 18  1  0  0  0  0
 15 25  1  0  0  0  0
 18 19  1  0  0  0  0
 20 21  1  0  0  0  0
 20 22  1  0  0  0  0
 20 23  1  0  0  0  0
 23 24  1  0  0  0  0
 25 26  2  0  0  0  0
 25 27  1  0  0  0  0
 27 28  1  0  0  0  0
 27 29  1  0  0  0  0
 27 30  1  0  0  0  0
M  END
> <ConfClashScore>
0.0516066 

> <ConfOneFourInteractionScore>
-0.942232 

> <ConfScore>
5.64849 

> <ConfScorePBest>
0.0096395 

> <ConfTolerance>
0.25 

$$$$
L09.****
  PyMOL2.4          3D                             0

 30 30  0  0  0  0  0  0  0  0999 V2000
   11.9889   -5.2177   -0.3193 C   0  0  0  1  0  0  0  0  0  0  0  0
   12.1470   -5.5135   -1.3354 H   0  0  0  1  0  0  0  0  0  0  0  0
   11.9995   -6.4863    0.3402 O   0  0  0  1  0  0  0  0  0  0  0  0
   11.7882   -7.1777   -0.2914 H   0  0  0  1  0  0  0  0  0  0  0  0
   11.2268   -4.9104   -0.2388 C   0  0  0  1  0  0  0  0  0  0  0  0
   10.6771   -4.9994   -1.1524 H   0  0  0  1  0  0  0  0  0  0  0  0
   10.5695   -5.8596    0.5972 O   0  0  0  1  0  0  0  0  0  0  0  0
   10.6495   -5.5884    1.5146 H   0  0  0  1  0  0  0  0  0  0  0  0
   11.1151   -4.1685    0.1043 C   0  0  0  1  0  0  0  0  0  0  0  0
   10.3480   -4.2008    0.8495 H   0  0  0  1  0  0  0  0  0  0  0  0
   12.5266   -4.0402    0.2865 C   0  0  0  1  0  0  0  0  0  0  0  0
   13.0865   -3.9400    1.1927 H   0  0  0  1  0  0  0  0  0  0  0  0
   13.1554   -3.1425   -0.5574 O   0  0  0  1  0  0  0  0  0  0  0  0
   13.9834   -2.8584   -0.1634 H   0  0  0  1  0  0  0  0  0  0  0  0
   13.4692   -5.5675    0.8492 N   0  0  0  1  0  0  0  0  0  0  0  0
   13.0712   -5.8499    1.6990 H   0  0  0  1  0  0  0  0  0  0  0  0
   11.7655   -3.7338    0.3667 O   0  0  0  1  0  0  0  0  0  0  0  0
   12.6383   -4.7822   -0.0566 C   0  0  0  1  0  0  0  0  0  0  0  0
   13.3140   -4.6679   -0.8783 H   0  0  0  1  0  0  0  0  0  0  0  0
   10.4808   -3.2832   -0.9329 C   0  0  0  1  0  0  0  0  0  0  0  0
   10.3743   -2.2994   -0.5259 H   0  0  0  1  0  0  0  0  0  0  0  0
    9.5154   -3.6757   -1.1754 H   0  0  0  1  0  0  0  0  0  0  0  0
   11.2522   -3.2030   -2.1228 O   0  0  0  1  0  0  0  0  0  0  0  0
   11.2190   -4.0446   -2.5835 H   0  0  0  1  0  0  0  0  0  0  0  0
   14.7444   -5.9343    0.6051 C   0  0  0  1  0  0  0  0  0  0  0  0
   15.2798   -5.6916   -0.4756 O   0  0  0  1  0  0  0  0  0  0  0  0
   15.4989   -6.6539    1.7000 C   0  0  0  1  0  0  0  0  0  0  0  0
   14.9270   -7.4937    2.0354 H   0  0  0  1  0  0  0  0  0  0  0  0
   15.6633   -5.9848    2.5187 H   0  0  0  1  0  0  0  0  0  0  0  0
   16.4404   -6.9925    1.3208 H   0  0  0  1  0  0  0  0  0  0  0  0
  1  2  1  0  0  0  0
  1  3  1  0  0  0  0
  1  5  1  0  0  0  0
  1 18  1  0  0  0  0
  3  4  1  0  0  0  0
  5  6  1  0  0  0  0
  5  7  1  0  0  0  0
  5  9  1  0  0  0  0
  7  8  1  0  0  0  0
  9 10  1  0  0  0  0
  9 17  1  0  0  0  0
  9 20  1  0  0  0  0
 11 12  1  0  0  0  0
 11 13  1  0  0  0  0
 11 17  1  0  0  0  0
 11 18  1  0  0  0  0
 13 14  1  0  0  0  0
 15 16  1  0  0  0  0
 15 18  1  0  0  0  0
 15 25  1  0  0  0  0
 18 19  1  0  0  0  0
 20 21  1  0  0  0  0
 20 22  1  0  0  0  0
 20 23  1  0  0  0  0
 23 24  1  0  0  0  0
 25 26  2  0  0  0  0
 25 27  1  0  0  0  0
 27 28  1  0  0  0  0
 27 29  1  0  0  0  0
 27 30  1  0  0  0  0
M  END
> <ConfClashScore>
0.0514957 

> <ConfOneFourInteractionScore>
-0.967492 

> <ConfScore>
5.6577 

> <ConfScorePBest>
0.0095365 

> <ConfTolerance>
0.73399 

$$$$
L09.****
  PyMOL2.4          3D                             0

 30 30  0  0  0  0  0  0  0  0999 V2000
   12.0163   -5.2860    0.1253 C   0  0  0  1  0  0  0  0  0  0  0  0
   12.1572   -6.1282   -0.5195 H   0  0  0  1  0  0  0  0  0  0  0  0
   12.0633   -5.8866    1.4222 O   0  0  0  1  0  0  0  0  0  0  0  0
   12.4163   -6.7765    1.3507 H   0  0  0  1  0  0  0  0  0  0  0  0
   11.2477   -4.9891    0.0719 C   0  0  0  1  0  0  0  0  0  0  0  0
   10.6456   -5.3758    0.8673 H   0  0  0  1  0  0  0  0  0  0  0  0
   10.6651   -5.6258   -1.0626 O   0  0  0  1  0  0  0  0  0  0  0  0
    9.7135   -5.5003   -1.0470 H   0  0  0  1  0  0  0  0  0  0  0  0
   11.1237   -4.1778   -0.0116 C   0  0  0  1  0  0  0  0  0  0  0  0
   10.4625   -3.9883   -0.8313 H   0  0  0  1  0  0  0  0  0  0  0  0
   12.5358   -3.9595    0.0117 C   0  0  0  1  0  0  0  0  0  0  0  0
   13.1129   -3.4069    0.7233 H   0  0  0  1  0  0  0  0  0  0  0  0
   13.1901   -3.6627   -1.1953 O   0  0  0  1  0  0  0  0  0  0  0  0
   13.9579   -3.1147   -1.0173 H   0  0  0  1  0  0  0  0  0  0  0  0
   13.6627   -5.2586   -0.8991 N   0  0  0  1  0  0  0  0  0  0  0  0
   13.4894   -5.1573   -1.8583 H   0  0  0  1  0  0  0  0  0  0  0  0
   11.7683   -3.6634   -0.0417 O   0  0  0  1  0  0  0  0  0  0  0  0
   12.6598   -4.7708    0.0952 C   0  0  0  1  0  0  0  0  0  0  0  0
   13.2217   -4.9138    0.9945 H   0  0  0  1  0  0  0  0  0  0  0  0
   10.3084   -3.6534    1.1382 C   0  0  0  1  0  0  0  0  0  0  0  0
   10.8648   -3.7366    2.0484 H   0  0  0  1  0  0  0  0  0  0  0  0
    9.3981   -4.2091    1.2240 H   0  0  0  1  0  0  0  0  0  0  0  0
   10.0200   -2.2888    0.8694 O   0  0  0  1  0  0  0  0  0  0  0  0
   10.3957   -1.7395    1.5612 H   0  0  0  1  0  0  0  0  0  0  0  0
   14.7952   -5.8325   -0.4832 C   0  0  0  1  0  0  0  0  0  0  0  0
   15.0116   -6.0765    0.6924 O   0  0  0  1  0  0  0  0  0  0  0  0
   15.7855   -6.2766   -1.5574 C   0  0  0  1  0  0  0  0  0  0  0  0
   15.4339   -7.1765   -2.0172 H   0  0  0  1  0  0  0  0  0  0  0  0
   16.7408   -6.4547   -1.1097 H   0  0  0  1  0  0  0  0  0  0  0  0
   15.8755   -5.5096   -2.2981 H   0  0  0  1  0  0  0  0  0  0  0  0
  1  2  1  0  0  0  0
  1  3  1  0  0  0  0
  1  5  1  0  0  0  0
  1 18  1  0  0  0  0
  3  4  1  0  0  0  0
  5  6  1  0  0  0  0
  5  7  1  0  0  0  0
  5  9  1  0  0  0  0
  7  8  1  0  0  0  0
  9 10  1  0  0  0  0
  9 17  1  0  0  0  0
  9 20  1  0  0  0  0
 11 12  1  0  0  0  0
 11 13  1  0  0  0  0
 11 17  1  0  0  0  0
 11 18  1  0  0  0  0
 13 14  1  0  0  0  0
 15 16  1  0  0  0  0
 15 18  1  0  0  0  0
 15 25  1  0  0  0  0
 18 19  1  0  0  0  0
 20 21  1  0  0  0  0
 20 22  1  0  0  0  0
 20 23  1  0  0  0  0
 23 24  1  0  0  0  0
 25 26  2  0  0  0  0
 25 27  1  0  0  0  0
 27 28  1  0  0  0  0
 27 29  1  0  0  0  0
 27 30  1  0  0  0  0
M  END
> <ConfClashScore>
0.0519821 

> <ConfOneFourInteractionScore>
-0.957877 

> <ConfScore>
5.69913 

> <ConfScorePBest>
0.00943349 

> <ConfTolerance>
0.299913 

$$$$
L09.****
  PyMOL2.4          3D                             0

 30 30  0  0  0  0  0  0  0  0999 V2000
   12.0448   -5.2401   -0.1058 C   0  0  0  1  0  0  0  0  0  0  0  0
   12.2860   -5.8521   -0.9498 H   0  0  0  1  0  0  0  0  0  0  0  0
   11.9223   -6.2103    0.9374 O   0  0  0  1  0  0  0  0  0  0  0  0
   11.7205   -7.0677    0.5556 H   0  0  0  1  0  0  0  0  0  0  0  0
   11.2833   -4.9285   -0.1746 C   0  0  0  1  0  0  0  0  0  0  0  0
   10.8183   -5.2513   -1.0826 H   0  0  0  1  0  0  0  0  0  0  0  0
   10.4751   -5.5634    0.8131 O   0  0  0  1  0  0  0  0  0  0  0  0
    9.9899   -6.2884    0.4124 H   0  0  0  1  0  0  0  0  0  0  0  0
   11.1536   -4.1239   -0.0462 C   0  0  0  1  0  0  0  0  0  0  0  0
   10.3459   -3.9838    0.6414 H   0  0  0  1  0  0  0  0  0  0  0  0
   12.5458   -3.9418    0.2195 C   0  0  0  1  0  0  0  0  0  0  0  0
   13.0357   -3.5983    1.1066 H   0  0  0  1  0  0  0  0  0  0  0  0
   13.3258   -3.3650   -0.8030 O   0  0  0  1  0  0  0  0  0  0  0  0
   14.0226   -2.8323   -0.4127 H   0  0  0  1  0  0  0  0  0  0  0  0
   13.7472   -4.9255   -0.8769 N   0  0  0  1  0  0  0  0  0  0  0  0
   13.5536   -4.7881   -1.8277 H   0  0  0  1  0  0  0  0  0  0  0  0
   11.7854   -3.6310    0.1508 O   0  0  0  1  0  0  0  0  0  0  0  0
   12.6755   -4.7464    0.0912 C   0  0  0  1  0  0  0  0  0  0  0  0
   13.1454   -5.1467    0.9652 H   0  0  0  1  0  0  0  0  0  0  0  0
   10.6060   -3.4415   -1.2666 C   0  0  0  1  0  0  0  0  0  0  0  0
   11.1846   -3.7233   -2.1214 H   0  0  0  1  0  0  0  0  0  0  0  0
   10.6574   -2.3810   -1.1343 H   0  0  0  1  0  0  0  0  0  0  0  0
    9.2496   -3.8286   -1.4646 O   0  0  0  1  0  0  0  0  0  0  0  0
    8.9656   -4.3853   -0.7359 H   0  0  0  1  0  0  0  0  0  0  0  0
   14.9981   -5.2743   -0.5110 C   0  0  0  1  0  0  0  0  0  0  0  0
   15.3091   -5.3724    0.6748 O   0  0  0  1  0  0  0  0  0  0  0  0
   16.0095   -5.5419   -1.6026 C   0  0  0  1  0  0  0  0  0  0  0  0
   16.2243   -4.6311   -2.1215 H   0  0  0  1  0  0  0  0  0  0  0  0
   15.6107   -6.2583   -2.2901 H   0  0  0  1  0  0  0  0  0  0  0  0
   16.9091   -5.9255   -1.1687 H   0  0  0  1  0  0  0  0  0  0  0  0
  1  2  1  0  0  0  0
  1  3  1  0  0  0  0
  1  5  1  0  0  0  0
  1 18  1  0  0  0  0
  3  4  1  0  0  0  0
  5  6  1  0  0  0  0
  5  7  1  0  0  0  0
  5  9  1  0  0  0  0
  7  8  1  0  0  0  0
  9 10  1  0  0  0  0
  9 17  1  0  0  0  0
  9 20  1  0  0  0  0
 11 12  1  0  0  0  0
 11 13  1  0  0  0  0
 11 17  1  0  0  0  0
 11 18  1  0  0  0  0
 13 14  1  0  0  0  0
 15 16  1  0  0  0  0
 15 18  1  0  0  0  0
 15 25  1  0  0  0  0
 18 19  1  0  0  0  0
 20 21  1  0  0  0  0
 20 22  1  0  0  0  0
 20 23  1  0  0  0  0
 23 24  1  0  0  0  0
 25 26  2  0  0  0  0
 25 27  1  0  0  0  0
 27 28  1  0  0  0  0
 27 29  1  0  0  0  0
 27 30  1  0  0  0  0
M  END
> <ConfClashScore>
0.0501648 

> <ConfOneFourInteractionScore>
-0.942232 

> <ConfScore>
5.70241 

> <ConfScorePBest>
0.00933049 

> <ConfTolerance>
0.569708 

$$$$
L09.****
  PyMOL2.4          3D                             0

 30 30  0  0  0  0  0  0  0  0999 V2000
   12.0173   -5.2827    0.1049 C   0  0  0  1  0  0  0  0  0  0  0  0
   11.9494   -6.2645   -0.3149 H   0  0  0  1  0  0  0  0  0  0  0  0
   12.2384   -5.5744    1.4871 O   0  0  0  1  0  0  0  0  0  0  0  0
   11.5663   -6.1859    1.7971 H   0  0  0  1  0  0  0  0  0  0  0  0
   11.2928   -4.8915    0.0430 C   0  0  0  1  0  0  0  0  0  0  0  0
   10.7444   -4.9546    0.9596 H   0  0  0  1  0  0  0  0  0  0  0  0
   10.5271   -5.7314   -0.8175 O   0  0  0  1  0  0  0  0  0  0  0  0
   10.2928   -6.5380   -0.3526 H   0  0  0  1  0  0  0  0  0  0  0  0
   11.2612   -4.1281   -0.2681 C   0  0  0  1  0  0  0  0  0  0  0  0
   10.5303   -4.0872   -1.0484 H   0  0  0  1  0  0  0  0  0  0  0  0
   12.6778   -4.1459   -0.4555 C   0  0  0  1  0  0  0  0  0  0  0  0
   13.2775   -4.0376   -1.3350 H   0  0  0  1  0  0  0  0  0  0  0  0
   13.3592   -3.3817    0.4869 O   0  0  0  1  0  0  0  0  0  0  0  0
   13.0761   -2.4667    0.4227 H   0  0  0  1  0  0  0  0  0  0  0  0
   13.2909   -5.7363   -1.1707 N   0  0  0  1  0  0  0  0  0  0  0  0
   13.2091   -5.4317   -2.0985 H   0  0  0  1  0  0  0  0  0  0  0  0
   11.9543   -3.7557   -0.5172 O   0  0  0  1  0  0  0  0  0  0  0  0
   12.7093   -4.9094   -0.1445 C   0  0  0  1  0  0  0  0  0  0  0  0
   13.4554   -4.9657    0.6205 H   0  0  0  1  0  0  0  0  0  0  0  0
   10.7085   -3.1007    0.6778 C   0  0  0  1  0  0  0  0  0  0  0  0
   11.2720   -2.1942    0.6025 H   0  0  0  1  0  0  0  0  0  0  0  0
   10.7539   -3.4670    1.6822 H   0  0  0  1  0  0  0  0  0  0  0  0
    9.3576   -2.8640    0.3087 O   0  0  0  1  0  0  0  0  0  0  0  0
    8.8916   -2.4563    1.0424 H   0  0  0  1  0  0  0  0  0  0  0  0
   13.9325   -6.8853   -0.9531 C   0  0  0  1  0  0  0  0  0  0  0  0
   14.0085   -7.4094    0.1550 O   0  0  0  1  0  0  0  0  0  0  0  0
   14.5751   -7.5217   -2.1702 C   0  0  0  1  0  0  0  0  0  0  0  0
   14.8728   -6.7576   -2.8575 H   0  0  0  1  0  0  0  0  0  0  0  0
   13.8717   -8.1736   -2.6448 H   0  0  0  1  0  0  0  0  0  0  0  0
   15.4342   -8.0830   -1.8672 H   0  0  0  1  0  0  0  0  0  0  0  0
  1  2  1  0  0  0  0
  1  3  1  0  0  0  0
  1  5  1  0  0  0  0
  1 18  1  0  0  0  0
  3  4  1  0  0  0  0
  5  6  1  0  0  0  0
  5  7  1  0  0  0  0
  5  9  1  0  0  0  0
  7  8  1  0  0  0  0
  9 10  1  0  0  0  0
  9 17  1  0  0  0  0
  9 20  1  0  0  0  0
 11 12  1  0  0  0  0
 11 13  1  0  0  0  0
 11 17  1  0  0  0  0
 11 18  1  0  0  0  0
 13 14  1  0  0  0  0
 15 16  1  0  0  0  0
 15 18  1  0  0  0  0
 15 25  1  0  0  0  0
 18 19  1  0  0  0  0
 20 21  1  0  0  0  0
 20 22  1  0  0  0  0
 20 23  1  0  0  0  0
 23 24  1  0  0  0  0
 25 26  2  0  0  0  0
 25 27  1  0  0  0  0
 27 28  1  0  0  0  0
 27 29  1  0  0  0  0
 27 30  1  0  0  0  0
M  END
> <ConfClashScore>
0.049284 

> <ConfOneFourInteractionScore>
-0.942232 

> <ConfScore>
5.71041 

> <ConfScorePBest>
0.00922749 

> <ConfTolerance>
0.620738 

$$$$
L09.****
  PyMOL2.4          3D                             0

 30 30  0  0  0  0  0  0  0  0999 V2000
   11.9855   -5.2838    0.1448 C   0  0  0  1  0  0  0  0  0  0  0  0
   11.9418   -6.0123    0.9273 H   0  0  0  1  0  0  0  0  0  0  0  0
   12.1789   -6.0957   -1.0041 O   0  0  0  1  0  0  0  0  0  0  0  0
   12.3247   -7.0050   -0.7331 H   0  0  0  1  0  0  0  0  0  0  0  0
   11.2588   -4.9018    0.0561 C   0  0  0  1  0  0  0  0  0  0  0  0
   10.6891   -5.3454   -0.7335 H   0  0  0  1  0  0  0  0  0  0  0  0
   10.4930   -5.2047    1.1772 O   0  0  0  1  0  0  0  0  0  0  0  0
    9.8879   -5.9201    0.9682 H   0  0  0  1  0  0  0  0  0  0  0  0
   11.2279   -4.0784    0.0143 C   0  0  0  1  0  0  0  0  0  0  0  0
   10.4762   -3.6860    0.6669 H   0  0  0  1  0  0  0  0  0  0  0  0
   12.6491   -4.0181    0.1498 C   0  0  0  1  0  0  0  0  0  0  0  0
   13.2239   -3.5721    0.9344 H   0  0  0  1  0  0  0  0  0  0  0  0
   13.3912   -3.6843   -0.9871 O   0  0  0  1  0  0  0  0  0  0  0  0
   13.1742   -2.7900   -1.2603 H   0  0  0  1  0  0  0  0  0  0  0  0
   13.3375   -5.1797    1.4490 N   0  0  0  1  0  0  0  0  0  0  0  0
   14.1755   -5.6871    1.4230 H   0  0  0  1  0  0  0  0  0  0  0  0
   11.9235   -3.6371    0.0612 O   0  0  0  1  0  0  0  0  0  0  0  0
   12.6801   -4.8414    0.1916 C   0  0  0  1  0  0  0  0  0  0  0  0
   13.3917   -5.2118   -0.5165 H   0  0  0  1  0  0  0  0  0  0  0  0
   10.6941   -3.6703   -1.3312 C   0  0  0  1  0  0  0  0  0  0  0  0
   11.4007   -3.9567   -2.0821 H   0  0  0  1  0  0  0  0  0  0  0  0
   10.5707   -2.6075   -1.3437 H   0  0  0  1  0  0  0  0  0  0  0  0
    9.4445   -4.2777   -1.6261 O   0  0  0  1  0  0  0  0  0  0  0  0
    8.8311   -3.6110   -1.9434 H   0  0  0  1  0  0  0  0  0  0  0  0
   12.8326   -4.8189    2.6449 C   0  0  0  1  0  0  0  0  0  0  0  0
   11.8191   -4.1577    2.7998 O   0  0  0  1  0  0  0  0  0  0  0  0
   13.6508   -5.3156    3.8299 C   0  0  0  1  0  0  0  0  0  0  0  0
   13.0715   -6.0148    4.3959 H   0  0  0  1  0  0  0  0  0  0  0  0
   13.9166   -4.4867    4.4521 H   0  0  0  1  0  0  0  0  0  0  0  0
   14.5391   -5.7943    3.4740 H   0  0  0  1  0  0  0  0  0  0  0  0
  1  2  1  0  0  0  0
  1  3  1  0  0  0  0
  1  5  1  0  0  0  0
  1 18  1  0  0  0  0
  3  4  1  0  0  0  0
  5  6  1  0  0  0  0
  5  7  1  0  0  0  0
  5  9  1  0  0  0  0
  7  8  1  0  0  0  0
  9 10  1  0  0  0  0
  9 17  1  0  0  0  0
  9 20  1  0  0  0  0
 11 12  1  0  0  0  0
 11 13  1  0  0  0  0
 11 17  1  0  0  0  0
 11 18  1  0  0  0  0
 13 14  1  0  0  0  0
 15 16  1  0  0  0  0
 15 18  1  0  0  0  0
 15 25  1  0  0  0  0
 18 19  1  0  0  0  0
 20 21  1  0  0  0  0
 20 22  1  0  0  0  0
 20 23  1  0  0  0  0
 23 24  1  0  0  0  0
 25 26  2  0  0  0  0
 25 27  1  0  0  0  0
 27 28  1  0  0  0  0
 27 29  1  0  0  0  0
 27 30  1  0  0  0  0
M  END
> <ConfClashScore>
0.0504543 

> <ConfOneFourInteractionScore>
-0.958744 

> <ConfScore>
5.7255 

> <ConfScorePBest>
0.00912449 

> <ConfTolerance>
0.673743 

$$$$
L09.****
  PyMOL2.4          3D                             0

 30 30  0  0  0  0  0  0  0  0999 V2000
   12.0184   -5.2381    0.1833 C   0  0  0  1  0  0  0  0  0  0  0  0
   12.0112   -5.5876    1.1946 H   0  0  0  1  0  0  0  0  0  0  0  0
   12.1312   -6.4711   -0.5319 O   0  0  0  1  0  0  0  0  0  0  0  0
   11.4366   -7.0704   -0.2490 H   0  0  0  1  0  0  0  0  0  0  0  0
   11.2868   -4.8994    0.0052 C   0  0  0  1  0  0  0  0  0  0  0  0
   10.7281   -5.5685   -0.6152 H   0  0  0  1  0  0  0  0  0  0  0  0
   10.5342   -4.9550    1.2145 O   0  0  0  1  0  0  0  0  0  0  0  0
   10.2656   -5.8611    1.3834 H   0  0  0  1  0  0  0  0  0  0  0  0
   11.2504   -4.1383   -0.3112 C   0  0  0  1  0  0  0  0  0  0  0  0
   10.5335   -3.5389    0.2099 H   0  0  0  1  0  0  0  0  0  0  0  0
   12.6764   -4.0539   -0.2718 C   0  0  0  1  0  0  0  0  0  0  0  0
   13.3470   -3.9582   -1.1000 H   0  0  0  1  0  0  0  0  0  0  0  0
   13.2950   -3.2567    0.6960 O   0  0  0  1  0  0  0  0  0  0  0  0
   13.2959   -2.3419    0.4049 H   0  0  0  1  0  0  0  0  0  0  0  0
   13.5153   -5.6002   -0.8812 N   0  0  0  1  0  0  0  0  0  0  0  0
   13.1532   -5.7991   -1.7698 H   0  0  0  1  0  0  0  0  0  0  0  0
   11.9458   -3.7160   -0.4495 O   0  0  0  1  0  0  0  0  0  0  0  0
   12.7127   -4.8149    0.0446 C   0  0  0  1  0  0  0  0  0  0  0  0
   13.3315   -4.8232    0.9175 H   0  0  0  1  0  0  0  0  0  0  0  0
   10.6135   -4.2448   -1.6694 C   0  0  0  1  0  0  0  0  0  0  0  0
    9.5699   -4.4454   -1.5445 H   0  0  0  1  0  0  0  0  0  0  0  0
   11.0714   -5.0526   -2.2010 H   0  0  0  1  0  0  0  0  0  0  0  0
   10.7608   -3.0557   -2.4323 O   0  0  0  1  0  0  0  0  0  0  0  0
   11.6938   -2.8787   -2.5728 H   0  0  0  1  0  0  0  0  0  0  0  0
   14.7286   -6.0594   -0.5617 C   0  0  0  1  0  0  0  0  0  0  0  0
   15.2530   -5.8538    0.5205 O   0  0  0  1  0  0  0  0  0  0  0  0
   15.4321   -6.8649   -1.6366 C   0  0  0  1  0  0  0  0  0  0  0  0
   15.2556   -7.9077   -1.4745 H   0  0  0  1  0  0  0  0  0  0  0  0
   16.4836   -6.6709   -1.5966 H   0  0  0  1  0  0  0  0  0  0  0  0
   15.0535   -6.5845   -2.5973 H   0  0  0  1  0  0  0  0  0  0  0  0
  1  2  1  0  0  0  0
  1  3  1  0  0  0  0
  1  5  1  0  0  0  0
  1 18  1  0  0  0  0
  3  4  1  0  0  0  0
  5  6  1  0  0  0  0
  5  7  1  0  0  0  0
  5  9  1  0  0  0  0
  7  8  1  0  0  0  0
  9 10  1  0  0  0  0
  9 17  1  0  0  0  0
  9 20  1  0  0  0  0
 11 12  1  0  0  0  0
 11 13  1  0  0  0  0
 11 17  1  0  0  0  0
 11 18  1  0  0  0  0
 13 14  1  0  0  0  0
 15 16  1  0  0  0  0
 15 18  1  0  0  0  0
 15 25  1  0  0  0  0
 18 19  1  0  0  0  0
 20 21  1  0  0  0  0
 20 22  1  0  0  0  0
 20 23  1  0  0  0  0
 23 24  1  0  0  0  0
 25 26  2  0  0  0  0
 25 27  1  0  0  0  0
 27 28  1  0  0  0  0
 27 29  1  0  0  0  0
 27 30  1  0  0  0  0
M  END
> <ConfClashScore>
0.0505483 

> <ConfOneFourInteractionScore>
-0.972815 

> <ConfScore>
5.7598 

> <ConfScorePBest>
0.00902149 

> <ConfTolerance>
0.470679 

$$$$
L09.****
  PyMOL2.4          3D                             0

 30 30  0  0  0  0  0  0  0  0999 V2000
   11.9222   -5.3178   -0.0093 C   0  0  0  1  0  0  0  0  0  0  0  0
   12.0550   -5.8374    0.9166 H   0  0  0  1  0  0  0  0  0  0  0  0
   11.9053   -6.4036   -0.9326 O   0  0  0  1  0  0  0  0  0  0  0  0
   12.0633   -7.2259   -0.4631 H   0  0  0  1  0  0  0  0  0  0  0  0
   11.1636   -4.9928   -0.0344 C   0  0  0  1  0  0  0  0  0  0  0  0
   10.4903   -5.6028   -0.5996 H   0  0  0  1  0  0  0  0  0  0  0  0
   10.7219   -5.2091    1.3035 O   0  0  0  1  0  0  0  0  0  0  0  0
   11.1770   -4.6035    1.8931 H   0  0  0  1  0  0  0  0  0  0  0  0
   11.0634   -4.1912   -0.2020 C   0  0  0  1  0  0  0  0  0  0  0  0
   10.4932   -3.7503    0.5888 H   0  0  0  1  0  0  0  0  0  0  0  0
   12.4794   -4.0388   -0.3195 C   0  0  0  1  0  0  0  0  0  0  0  0
   13.0359   -3.7639   -1.1910 H   0  0  0  1  0  0  0  0  0  0  0  0
   13.1937   -3.3887    0.6981 O   0  0  0  1  0  0  0  0  0  0  0  0
   14.0406   -3.0928    0.3564 H   0  0  0  1  0  0  0  0  0  0  0  0
   13.5145   -4.9747    0.9729 N   0  0  0  1  0  0  0  0  0  0  0  0
   13.1623   -4.9447    1.8869 H   0  0  0  1  0  0  0  0  0  0  0  0
   11.7219   -3.7147   -0.3445 O   0  0  0  1  0  0  0  0  0  0  0  0
   12.5796   -4.8403   -0.1519 C   0  0  0  1  0  0  0  0  0  0  0  0
   13.1583   -5.2826   -0.9357 H   0  0  0  1  0  0  0  0  0  0  0  0
   10.1497   -3.9072   -1.3707 C   0  0  0  1  0  0  0  0  0  0  0  0
   10.6101   -4.2750   -2.2638 H   0  0  0  1  0  0  0  0  0  0  0  0
   10.0120   -2.8490   -1.4496 H   0  0  0  1  0  0  0  0  0  0  0  0
    8.8778   -4.5227   -1.2269 O   0  0  0  1  0  0  0  0  0  0  0  0
    8.3584   -4.3745   -2.0206 H   0  0  0  1  0  0  0  0  0  0  0  0
   14.8285   -5.1365    0.7932 C   0  0  0  1  0  0  0  0  0  0  0  0
   15.3329   -5.3484   -0.3087 O   0  0  0  1  0  0  0  0  0  0  0  0
   15.6847   -5.0428    2.0497 C   0  0  0  1  0  0  0  0  0  0  0  0
   15.7941   -6.0160    2.4807 H   0  0  0  1  0  0  0  0  0  0  0  0
   15.2122   -4.3916    2.7551 H   0  0  0  1  0  0  0  0  0  0  0  0
   16.6490   -4.6550    1.7957 H   0  0  0  1  0  0  0  0  0  0  0  0
  1  2  1  0  0  0  0
  1  3  1  0  0  0  0
  1  5  1  0  0  0  0
  1 18  1  0  0  0  0
  3  4  1  0  0  0  0
  5  6  1  0  0  0  0
  5  7  1  0  0  0  0
  5  9  1  0  0  0  0
  7  8  1  0  0  0  0
  9 10  1  0  0  0  0
  9 17  1  0  0  0  0
  9 20  1  0  0  0  0
 11 12  1  0  0  0  0
 11 13  1  0  0  0  0
 11 17  1  0  0  0  0
 11 18  1  0  0  0  0
 13 14  1  0  0  0  0
 15 16  1  0  0  0  0
 15 18  1  0  0  0  0
 15 25  1  0  0  0  0
 18 19  1  0  0  0  0
 20 21  1  0  0  0  0
 20 22  1  0  0  0  0
 20 23  1  0  0  0  0
 23 24  1  0  0  0  0
 25 26  2  0  0  0  0
 25 27  1  0  0  0  0
 27 28  1  0  0  0  0
 27 29  1  0  0  0  0
 27 30  1  0  0  0  0
M  END
> <ConfClashScore>
0.0516722 

> <ConfOneFourInteractionScore>
-0.953051 

> <ConfScore>
5.7936 

> <ConfScorePBest>
0.00891849 

> <ConfTolerance>
0.751286 

$$$$
L09.****
  PyMOL2.4          3D                             0

 30 30  0  0  0  0  0  0  0  0999 V2000
   11.9993   -5.2345    0.2433 C   0  0  0  1  0  0  0  0  0  0  0  0
   11.8049   -5.8542    1.0936 H   0  0  0  1  0  0  0  0  0  0  0  0
   12.5135   -6.1708   -0.7050 O   0  0  0  1  0  0  0  0  0  0  0  0
   11.9197   -6.9224   -0.7676 H   0  0  0  1  0  0  0  0  0  0  0  0
   11.3053   -4.9039   -0.0580 C   0  0  0  1  0  0  0  0  0  0  0  0
   11.0057   -5.4651   -0.9184 H   0  0  0  1  0  0  0  0  0  0  0  0
   10.2687   -5.2514    0.8568 O   0  0  0  1  0  0  0  0  0  0  0  0
    9.9889   -6.1554    0.6956 H   0  0  0  1  0  0  0  0  0  0  0  0
   11.2781   -4.1008   -0.2451 C   0  0  0  1  0  0  0  0  0  0  0  0
   10.8576   -3.9455   -1.2167 H   0  0  0  1  0  0  0  0  0  0  0  0
   12.6381   -3.9582    0.1698 C   0  0  0  1  0  0  0  0  0  0  0  0
   13.0671   -3.3532    0.9411 H   0  0  0  1  0  0  0  0  0  0  0  0
   13.5502   -3.8027   -0.8871 O   0  0  0  1  0  0  0  0  0  0  0  0
   13.2489   -3.1019   -1.4699 H   0  0  0  1  0  0  0  0  0  0  0  0
   13.1181   -4.9078    1.7470 N   0  0  0  1  0  0  0  0  0  0  0  0
   12.6007   -4.4796    2.4607 H   0  0  0  1  0  0  0  0  0  0  0  0
   11.9450   -3.6284   -0.1309 O   0  0  0  1  0  0  0  0  0  0  0  0
   12.6652   -4.7612    0.3569 C   0  0  0  1  0  0  0  0  0  0  0  0
   13.4904   -5.2039   -0.1608 H   0  0  0  1  0  0  0  0  0  0  0  0
   10.2643   -3.4169    0.6303 C   0  0  0  1  0  0  0  0  0  0  0  0
   10.5873   -3.4402    1.6501 H   0  0  0  1  0  0  0  0  0  0  0  0
    9.3172   -3.9074    0.5443 H   0  0  0  1  0  0  0  0  0  0  0  0
   10.1557   -2.0720    0.1867 O   0  0  0  1  0  0  0  0  0  0  0  0
    9.9877   -2.0588   -0.7584 H   0  0  0  1  0  0  0  0  0  0  0  0
   14.2108   -5.6045    2.0719 C   0  0  0  1  0  0  0  0  0  0  0  0
   14.9482   -6.1092    1.2413 O   0  0  0  1  0  0  0  0  0  0  0  0
   14.4906   -5.7367    3.5564 C   0  0  0  1  0  0  0  0  0  0  0  0
   15.3350   -5.1330    3.8158 H   0  0  0  1  0  0  0  0  0  0  0  0
   14.6987   -6.7599    3.7901 H   0  0  0  1  0  0  0  0  0  0  0  0
   13.6354   -5.4105    4.1106 H   0  0  0  1  0  0  0  0  0  0  0  0
  1  2  1  0  0  0  0
  1  3  1  0  0  0  0
  1  5  1  0  0  0  0
  1 18  1  0  0  0  0
  3  4  1  0  0  0  0
  5  6  1  0  0  0  0
  5  7  1  0  0  0  0
  5  9  1  0  0  0  0
  7  8  1  0  0  0  0
  9 10  1  0  0  0  0
  9 17  1  0  0  0  0
  9 20  1  0  0  0  0
 11 12  1  0  0  0  0
 11 13  1  0  0  0  0
 11 17  1  0  0  0  0
 11 18  1  0  0  0  0
 13 14  1  0  0  0  0
 15 16  1  0  0  0  0
 15 18  1  0  0  0  0
 15 25  1  0  0  0  0
 18 19  1  0  0  0  0
 20 21  1  0  0  0  0
 20 22  1  0  0  0  0
 20 23  1  0  0  0  0
 23 24  1  0  0  0  0
 25 26  2  0  0  0  0
 25 27  1  0  0  0  0
 27 28  1  0  0  0  0
 27 29  1  0  0  0  0
 27 30  1  0  0  0  0
M  END
> <ConfClashScore>
0.0528296 

> <ConfOneFourInteractionScore>
-0.957877 

> <ConfScore>
5.8174 

> <ConfScorePBest>
0.00881549 

> <ConfTolerance>
0.381073 

$$$$
L09.****
  PyMOL2.4          3D                             0

 30 30  0  0  0  0  0  0  0  0999 V2000
   12.0877   -5.1470    0.3527 C   0  0  0  1  0  0  0  0  0  0  0  0
   12.0995   -5.7176    1.2578 H   0  0  0  1  0  0  0  0  0  0  0  0
   12.2609   -6.1608   -0.6406 O   0  0  0  1  0  0  0  0  0  0  0  0
   12.0002   -7.0112   -0.2795 H   0  0  0  1  0  0  0  0  0  0  0  0
   11.3330   -4.8500    0.1979 C   0  0  0  1  0  0  0  0  0  0  0  0
   10.7019   -5.0707    1.0333 H   0  0  0  1  0  0  0  0  0  0  0  0
   10.6900   -5.5996   -0.8227 O   0  0  0  1  0  0  0  0  0  0  0  0
    9.8558   -5.9410   -0.4922 H   0  0  0  1  0  0  0  0  0  0  0  0
   11.2352   -4.0559   -0.0030 C   0  0  0  1  0  0  0  0  0  0  0  0
   10.6378   -3.9660   -0.8861 H   0  0  0  1  0  0  0  0  0  0  0  0
   12.6458   -3.8547    0.1056 C   0  0  0  1  0  0  0  0  0  0  0  0
   13.1983   -3.2108    0.7576 H   0  0  0  1  0  0  0  0  0  0  0  0
   13.3754   -3.7769   -1.0902 O   0  0  0  1  0  0  0  0  0  0  0  0
   12.9381   -4.2988   -1.7669 H   0  0  0  1  0  0  0  0  0  0  0  0
   13.4481   -4.7621    1.5397 N   0  0  0  1  0  0  0  0  0  0  0  0
   12.9403   -4.7448    2.3777 H   0  0  0  1  0  0  0  0  0  0  0  0
   11.8922   -3.5586   -0.0490 O   0  0  0  1  0  0  0  0  0  0  0  0
   12.7436   -4.6489    0.3065 C   0  0  0  1  0  0  0  0  0  0  0  0
   13.4533   -5.0840   -0.3658 H   0  0  0  1  0  0  0  0  0  0  0  0
   10.3323   -3.4234    1.0200 C   0  0  0  1  0  0  0  0  0  0  0  0
    9.3935   -3.9363    1.0455 H   0  0  0  1  0  0  0  0  0  0  0  0
   10.1703   -2.3939    0.7775 H   0  0  0  1  0  0  0  0  0  0  0  0
   10.9768   -3.5289    2.2813 O   0  0  0  1  0  0  0  0  0  0  0  0
   10.3816   -3.9407    2.9119 H   0  0  0  1  0  0  0  0  0  0  0  0
   14.7768   -4.8909    1.5934 C   0  0  0  1  0  0  0  0  0  0  0  0
   15.3819   -5.0379    2.6520 O   0  0  0  1  0  0  0  0  0  0  0  0
   15.5250   -4.9548    0.2615 C   0  0  0  1  0  0  0  0  0  0  0  0
   14.9643   -5.5422   -0.4352 H   0  0  0  1  0  0  0  0  0  0  0  0
   16.4852   -5.4019    0.4132 H   0  0  0  1  0  0  0  0  0  0  0  0
   15.6490   -3.9649   -0.1254 H   0  0  0  1  0  0  0  0  0  0  0  0
  1  2  1  0  0  0  0
  1  3  1  0  0  0  0
  1  5  1  0  0  0  0
  1 18  1  0  0  0  0
  3  4  1  0  0  0  0
  5  6  1  0  0  0  0
  5  7  1  0  0  0  0
  5  9  1  0  0  0  0
  7  8  1  0  0  0  0
  9 10  1  0  0  0  0
  9 17  1  0  0  0  0
  9 20  1  0  0  0  0
 11 12  1  0  0  0  0
 11 13  1  0  0  0  0
 11 17  1  0  0  0  0
 11 18  1  0  0  0  0
 13 14  1  0  0  0  0
 15 16  1  0  0  0  0
 15 18  1  0  0  0  0
 15 25  1  0  0  0  0
 18 19  1  0  0  0  0
 20 21  1  0  0  0  0
 20 22  1  0  0  0  0
 20 23  1  0  0  0  0
 23 24  1  0  0  0  0
 25 26  2  0  0  0  0
 25 27  1  0  0  0  0
 27 28  1  0  0  0  0
 27 29  1  0  0  0  0
 27 30  1  0  0  0  0
M  END
> <ConfClashScore>
0.04877 

> <ConfOneFourInteractionScore>
-0.967492 

> <ConfScore>
5.82011 

> <ConfScorePBest>
0.00871249 

> <ConfTolerance>
0.702737 

$$$$
L09.****
  PyMOL2.4          3D                             0

 30 30  0  0  0  0  0  0  0  0999 V2000
   11.9709   -5.1953    0.3129 C   0  0  0  1  0  0  0  0  0  0  0  0
   12.1952   -5.4802    1.3196 H   0  0  0  1  0  0  0  0  0  0  0  0
   11.8221   -6.4649   -0.3280 O   0  0  0  1  0  0  0  0  0  0  0  0
   12.4802   -7.0751    0.0130 H   0  0  0  1  0  0  0  0  0  0  0  0
   11.2529   -4.7895    0.2728 C   0  0  0  1  0  0  0  0  0  0  0  0
   10.7691   -4.7324    1.2255 H   0  0  0  1  0  0  0  0  0  0  0  0
   10.4163   -5.6918   -0.4468 O   0  0  0  1  0  0  0  0  0  0  0  0
    9.8545   -6.1682    0.1688 H   0  0  0  1  0  0  0  0  0  0  0  0
   11.2030   -4.0793   -0.1440 C   0  0  0  1  0  0  0  0  0  0  0  0
   10.3771   -4.1077   -0.8236 H   0  0  0  1  0  0  0  0  0  0  0  0
   12.5881   -4.1799   -0.4811 C   0  0  0  1  0  0  0  0  0  0  0  0
   13.0515   -4.2549   -1.4426 H   0  0  0  1  0  0  0  0  0  0  0  0
   13.4894   -3.3579    0.2266 O   0  0  0  1  0  0  0  0  0  0  0  0
   13.3569   -2.4422   -0.0295 H   0  0  0  1  0  0  0  0  0  0  0  0
   13.8317   -4.8574    0.8887 N   0  0  0  1  0  0  0  0  0  0  0  0
   13.8622   -4.1685    1.5851 H   0  0  0  1  0  0  0  0  0  0  0  0
   11.8711   -3.7750   -0.5209 O   0  0  0  1  0  0  0  0  0  0  0  0
   12.6380   -4.8901   -0.0642 C   0  0  0  1  0  0  0  0  0  0  0  0
   12.9851   -5.6359   -0.7484 H   0  0  0  1  0  0  0  0  0  0  0  0
   10.7759   -2.9603    0.7762 C   0  0  0  1  0  0  0  0  0  0  0  0
   11.5596   -2.7562    1.4755 H   0  0  0  1  0  0  0  0  0  0  0  0
    9.8926   -3.2522    1.3049 H   0  0  0  1  0  0  0  0  0  0  0  0
   10.5059   -1.7909    0.0145 O   0  0  0  1  0  0  0  0  0  0  0  0
   10.7861   -1.9280   -0.8934 H   0  0  0  1  0  0  0  0  0  0  0  0
   14.8353   -5.7354    0.8058 C   0  0  0  1  0  0  0  0  0  0  0  0
   14.8866   -6.6151   -0.0528 O   0  0  0  1  0  0  0  0  0  0  0  0
   15.9283   -5.5867    1.8463 C   0  0  0  1  0  0  0  0  0  0  0  0
   15.9587   -4.5738    2.1900 H   0  0  0  1  0  0  0  0  0  0  0  0
   16.8715   -5.8440    1.4116 H   0  0  0  1  0  0  0  0  0  0  0  0
   15.7258   -6.2372    2.6713 H   0  0  0  1  0  0  0  0  0  0  0  0
  1  2  1  0  0  0  0
  1  3  1  0  0  0  0
  1  5  1  0  0  0  0
  1 18  1  0  0  0  0
  3  4  1  0  0  0  0
  5  6  1  0  0  0  0
  5  7  1  0  0  0  0
  5  9  1  0  0  0  0
  7  8  1  0  0  0  0
  9 10  1  0  0  0  0
  9 17  1  0  0  0  0
  9 20  1  0  0  0  0
 11 12  1  0  0  0  0
 11 13  1  0  0  0  0
 11 17  1  0  0  0  0
 11 18  1  0  0  0  0
 13 14  1  0  0  0  0
 15 16  1  0  0  0  0
 15 18  1  0  0  0  0
 15 25  1  0  0  0  0
 18 19  1  0  0  0  0
 20 21  1  0  0  0  0
 20 22  1  0  0  0  0
 20 23  1  0  0  0  0
 23 24  1  0  0  0  0
 25 26  2  0  0  0  0
 25 27  1  0  0  0  0
 27 28  1  0  0  0  0
 27 29  1  0  0  0  0
 27 30  1  0  0  0  0
M  END
> <ConfClashScore>
0.0530208 

> <ConfOneFourInteractionScore>
-0.95717 

> <ConfScore>
5.84418 

> <ConfScorePBest>
0.00860949 

> <ConfTolerance>
0.539271 

$$$$
L09.****
  PyMOL2.4          3D                             0

 30 30  0  0  0  0  0  0  0  0999 V2000
   11.8814   -5.2908    0.2137 C   0  0  0  1  0  0  0  0  0  0  0  0
   11.6075   -6.2437   -0.1888 H   0  0  0  1  0  0  0  0  0  0  0  0
   12.4272   -5.6510    1.4862 O   0  0  0  1  0  0  0  0  0  0  0  0
   12.9783   -6.4310    1.3894 H   0  0  0  1  0  0  0  0  0  0  0  0
   11.2144   -4.8264    0.3593 C   0  0  0  1  0  0  0  0  0  0  0  0
   10.9427   -4.8829    1.3927 H   0  0  0  1  0  0  0  0  0  0  0  0
   10.1260   -5.5075   -0.2598 O   0  0  0  1  0  0  0  0  0  0  0  0
   10.4367   -5.9572   -1.0490 H   0  0  0  1  0  0  0  0  0  0  0  0
   11.1925   -4.0432    0.1009 C   0  0  0  1  0  0  0  0  0  0  0  0
   10.9423   -3.4068    0.9238 H   0  0  0  1  0  0  0  0  0  0  0  0
   12.5036   -4.1879   -0.4488 C   0  0  0  1  0  0  0  0  0  0  0  0
   12.8091   -4.1119   -1.4715 H   0  0  0  1  0  0  0  0  0  0  0  0
   13.5387   -3.5487    0.2179 O   0  0  0  1  0  0  0  0  0  0  0  0
   13.6968   -2.6908   -0.1831 H   0  0  0  1  0  0  0  0  0  0  0  0
   12.7981   -5.8108   -1.3514 N   0  0  0  1  0  0  0  0  0  0  0  0
   12.1209   -5.8390   -2.0592 H   0  0  0  1  0  0  0  0  0  0  0  0
   11.8376   -3.7245   -0.3033 O   0  0  0  1  0  0  0  0  0  0  0  0
   12.5255   -4.9711   -0.1904 C   0  0  0  1  0  0  0  0  0  0  0  0
   13.4151   -5.1285    0.3830 H   0  0  0  1  0  0  0  0  0  0  0  0
   10.0553   -3.7233   -0.8460 C   0  0  0  1  0  0  0  0  0  0  0  0
    9.1174   -4.0001   -0.4116 H   0  0  0  1  0  0  0  0  0  0  0  0
   10.1849   -4.2391   -1.7745 H   0  0  0  1  0  0  0  0  0  0  0  0
   10.1158   -2.3006   -1.0481 O   0  0  0  1  0  0  0  0  0  0  0  0
   10.0010   -1.8523   -0.2070 H   0  0  0  1  0  0  0  0  0  0  0  0
   13.8997   -6.5434   -1.5223 C   0  0  0  1  0  0  0  0  0  0  0  0
   14.8416   -6.5613   -0.7310 O   0  0  0  1  0  0  0  0  0  0  0  0
   14.0005   -7.4112   -2.7718 C   0  0  0  1  0  0  0  0  0  0  0  0
   14.4933   -6.8638   -3.5480 H   0  0  0  1  0  0  0  0  0  0  0  0
   13.0181   -7.6840   -3.0965 H   0  0  0  1  0  0  0  0  0  0  0  0
   14.5609   -8.2948   -2.5478 H   0  0  0  1  0  0  0  0  0  0  0  0
  1  2  1  0  0  0  0
  1  3  1  0  0  0  0
  1  5  1  0  0  0  0
  1 18  1  0  0  0  0
  3  4  1  0  0  0  0
  5  6  1  0  0  0  0
  5  7  1  0  0  0  0
  5  9  1  0  0  0  0
  7  8  1  0  0  0  0
  9 10  1  0  0  0  0
  9 17  1  0  0  0  0
  9 20  1  0  0  0  0
 11 12  1  0  0  0  0
 11 13  1  0  0  0  0
 11 17  1  0  0  0  0
 11 18  1  0  0  0  0
 13 14  1  0  0  0  0
 15 16  1  0  0  0  0
 15 18  1  0  0  0  0
 15 25  1  0  0  0  0
 18 19  1  0  0  0  0
 20 21  1  0  0  0  0
 20 22  1  0  0  0  0
 20 23  1  0  0  0  0
 23 24  1  0  0  0  0
 25 26  2  0  0  0  0
 25 27  1  0  0  0  0
 27 28  1  0  0  0  0
 27 29  1  0  0  0  0
 27 30  1  0  0  0  0
M  END
> <ConfClashScore>
0.0536283 

> <ConfOneFourInteractionScore>
-0.968695 

> <ConfScore>
5.85148 

> <ConfScorePBest>
0.00850649 

> <ConfTolerance>
0.25 

$$$$
L09.****
  PyMOL2.4          3D                             0

 30 30  0  0  0  0  0  0  0  0999 V2000
   12.1288   -5.1517    0.2988 C   0  0  0  1  0  0  0  0  0  0  0  0
   12.3183   -5.3326    1.3362 H   0  0  0  1  0  0  0  0  0  0  0  0
   12.0706   -6.4828   -0.2203 O   0  0  0  1  0  0  0  0  0  0  0  0
   11.7931   -7.0855    0.4734 H   0  0  0  1  0  0  0  0  0  0  0  0
   11.3672   -4.8509    0.1927 C   0  0  0  1  0  0  0  0  0  0  0  0
   10.8464   -4.7833    1.1250 H   0  0  0  1  0  0  0  0  0  0  0  0
   10.6168   -5.8488   -0.4952 O   0  0  0  1  0  0  0  0  0  0  0  0
    9.7001   -5.8119   -0.2126 H   0  0  0  1  0  0  0  0  0  0  0  0
   11.2510   -4.1727   -0.2625 C   0  0  0  1  0  0  0  0  0  0  0  0
   10.5334   -4.3937   -1.0248 H   0  0  0  1  0  0  0  0  0  0  0  0
   12.6570   -4.0953   -0.5059 C   0  0  0  1  0  0  0  0  0  0  0  0
   13.2032   -4.1329   -1.4252 H   0  0  0  1  0  0  0  0  0  0  0  0
   13.3079   -3.0886    0.1980 O   0  0  0  1  0  0  0  0  0  0  0  0
   12.9162   -3.0027    1.0703 H   0  0  0  1  0  0  0  0  0  0  0  0
   13.5301   -5.6842   -0.8966 N   0  0  0  1  0  0  0  0  0  0  0  0
   13.0600   -6.2839   -1.5128 H   0  0  0  1  0  0  0  0  0  0  0  0
   11.8965   -3.7953   -0.6116 O   0  0  0  1  0  0  0  0  0  0  0  0
   12.7731   -4.7735   -0.0507 C   0  0  0  1  0  0  0  0  0  0  0  0
   13.4994   -4.5604    0.7057 H   0  0  0  1  0  0  0  0  0  0  0  0
   10.5200   -3.0911    0.4802 C   0  0  0  1  0  0  0  0  0  0  0  0
   11.2055   -2.6068    1.1439 H   0  0  0  1  0  0  0  0  0  0  0  0
    9.7295   -3.5375    1.0465 H   0  0  0  1  0  0  0  0  0  0  0  0
    9.9631   -2.1167   -0.3903 O   0  0  0  1  0  0  0  0  0  0  0  0
   10.4799   -2.0760   -1.1983 H   0  0  0  1  0  0  0  0  0  0  0  0
   14.8645   -5.7044   -0.8349 C   0  0  0  1  0  0  0  0  0  0  0  0
   15.5163   -4.9042   -0.1651 O   0  0  0  1  0  0  0  0  0  0  0  0
   15.5454   -6.7867   -1.6499 C   0  0  0  1  0  0  0  0  0  0  0  0
   16.4743   -6.4162   -2.0304 H   0  0  0  1  0  0  0  0  0  0  0  0
   14.9133   -7.0693   -2.4657 H   0  0  0  1  0  0  0  0  0  0  0  0
   15.7290   -7.6383   -1.0286 H   0  0  0  1  0  0  0  0  0  0  0  0
  1  2  1  0  0  0  0
  1  3  1  0  0  0  0
  1  5  1  0  0  0  0
  1 18  1  0  0  0  0
  3  4  1  0  0  0  0
  5  6  1  0  0  0  0
  5  7  1  0  0  0  0
  5  9  1  0  0  0  0
  7  8  1  0  0  0  0
  9 10  1  0  0  0  0
  9 17  1  0  0  0  0
  9 20  1  0  0  0  0
 11 12  1  0  0  0  0
 11 13  1  0  0  0  0
 11 17  1  0  0  0  0
 11 18  1  0  0  0  0
 13 14  1  0  0  0  0
 15 16  1  0  0  0  0
 15 18  1  0  0  0  0
 15 25  1  0  0  0  0
 18 19  1  0  0  0  0
 20 21  1  0  0  0  0
 20 22  1  0  0  0  0
 20 23  1  0  0  0  0
 23 24  1  0  0  0  0
 25 26  2  0  0  0  0
 25 27  1  0  0  0  0
 27 28  1  0  0  0  0
 27 29  1  0  0  0  0
 27 30  1  0  0  0  0
M  END
> <ConfClashScore>
0.0536299 

> <ConfOneFourInteractionScore>
-0.95717 

> <ConfScore>
5.85648 

> <ConfScorePBest>
0.00840348 

> <ConfTolerance>
0.55674 

$$$$
L09.****
  PyMOL2.4          3D                             0

 30 30  0  0  0  0  0  0  0  0999 V2000
   11.9454   -5.3222    0.0747 C   0  0  0  1  0  0  0  0  0  0  0  0
   11.7828   -6.2349   -0.4597 H   0  0  0  1  0  0  0  0  0  0  0  0
   12.3786   -5.8152    1.3451 O   0  0  0  1  0  0  0  0  0  0  0  0
   12.7401   -5.0922    1.8631 H   0  0  0  1  0  0  0  0  0  0  0  0
   11.2263   -4.9330    0.1892 C   0  0  0  1  0  0  0  0  0  0  0  0
   10.8950   -5.0733    1.1969 H   0  0  0  1  0  0  0  0  0  0  0  0
   10.2284   -5.6482   -0.5351 O   0  0  0  1  0  0  0  0  0  0  0  0
    9.9752   -6.4324   -0.0427 H   0  0  0  1  0  0  0  0  0  0  0  0
   11.1481   -4.1396   -0.0228 C   0  0  0  1  0  0  0  0  0  0  0  0
   10.7862   -3.5901    0.8210 H   0  0  0  1  0  0  0  0  0  0  0  0
   12.5073   -4.1236   -0.4638 C   0  0  0  1  0  0  0  0  0  0  0  0
   12.9398   -3.9111   -1.4192 H   0  0  0  1  0  0  0  0  0  0  0  0
   13.3565   -3.4649    0.4202 O   0  0  0  1  0  0  0  0  0  0  0  0
   14.1489   -3.1860   -0.0444 H   0  0  0  1  0  0  0  0  0  0  0  0
   12.9713   -5.6334   -1.4803 N   0  0  0  1  0  0  0  0  0  0  0  0
   12.7270   -5.2265   -2.3377 H   0  0  0  1  0  0  0  0  0  0  0  0
   11.7892   -3.7353   -0.3493 O   0  0  0  1  0  0  0  0  0  0  0  0
   12.5854   -4.9170   -0.2518 C   0  0  0  1  0  0  0  0  0  0  0  0
   13.4582   -5.0551    0.3516 H   0  0  0  1  0  0  0  0  0  0  0  0
   10.0662   -3.8306   -1.0176 C   0  0  0  1  0  0  0  0  0  0  0  0
    9.1057   -3.9897   -0.5738 H   0  0  0  1  0  0  0  0  0  0  0  0
   10.1707   -4.4584   -1.8777 H   0  0  0  1  0  0  0  0  0  0  0  0
   10.2075   -2.4678   -1.3920 O   0  0  0  1  0  0  0  0  0  0  0  0
   10.7323   -2.0072   -0.7332 H   0  0  0  1  0  0  0  0  0  0  0  0
   13.6355   -6.8072   -1.5137 C   0  0  0  1  0  0  0  0  0  0  0  0
   14.0693   -7.3215   -0.4837 O   0  0  0  1  0  0  0  0  0  0  0  0
   13.8329   -7.4766   -2.8599 C   0  0  0  1  0  0  0  0  0  0  0  0
   12.9635   -7.3252   -3.4650 H   0  0  0  1  0  0  0  0  0  0  0  0
   13.9894   -8.5254   -2.7169 H   0  0  0  1  0  0  0  0  0  0  0  0
   14.6851   -7.0515   -3.3478 H   0  0  0  1  0  0  0  0  0  0  0  0
  1  2  1  0  0  0  0
  1  3  1  0  0  0  0
  1  5  1  0  0  0  0
  1 18  1  0  0  0  0
  3  4  1  0  0  0  0
  5  6  1  0  0  0  0
  5  7  1  0  0  0  0
  5  9  1  0  0  0  0
  7  8  1  0  0  0  0
  9 10  1  0  0  0  0
  9 17  1  0  0  0  0
  9 20  1  0  0  0  0
 11 12  1  0  0  0  0
 11 13  1  0  0  0  0
 11 17  1  0  0  0  0
 11 18  1  0  0  0  0
 13 14  1  0  0  0  0
 15 16  1  0  0  0  0
 15 18  1  0  0  0  0
 15 25  1  0  0  0  0
 18 19  1  0  0  0  0
 20 21  1  0  0  0  0
 20 22  1  0  0  0  0
 20 23  1  0  0  0  0
 23 24  1  0  0  0  0
 25 26  2  0  0  0  0
 25 27  1  0  0  0  0
 27 28  1  0  0  0  0
 27 29  1  0  0  0  0
 27 30  1  0  0  0  0
M  END
> <ConfClashScore>
0.052068 

> <ConfOneFourInteractionScore>
-0.969401 

> <ConfScore>
5.89575 

> <ConfScorePBest>
0.00830048 

> <ConfTolerance>
0.501735 

$$$$
L09.****
  PyMOL2.4          3D                             0

 30 30  0  0  0  0  0  0  0  0999 V2000
   12.0317   -5.1854    0.3832 C   0  0  0  1  0  0  0  0  0  0  0  0
   12.0561   -5.7364    1.3001 H   0  0  0  1  0  0  0  0  0  0  0  0
   12.0035   -6.2320   -0.5907 O   0  0  0  1  0  0  0  0  0  0  0  0
   12.4448   -7.0087   -0.2392 H   0  0  0  1  0  0  0  0  0  0  0  0
   11.2948   -4.8303    0.2706 C   0  0  0  1  0  0  0  0  0  0  0  0
   10.6210   -5.0646    1.0681 H   0  0  0  1  0  0  0  0  0  0  0  0
   10.7312   -5.5507   -0.8227 O   0  0  0  1  0  0  0  0  0  0  0  0
    9.8514   -5.8540   -0.5871 H   0  0  0  1  0  0  0  0  0  0  0  0
   11.2483   -4.0340    0.0598 C   0  0  0  1  0  0  0  0  0  0  0  0
   10.6062   -3.9113   -0.7873 H   0  0  0  1  0  0  0  0  0  0  0  0
   12.6746   -3.9471    0.0740 C   0  0  0  1  0  0  0  0  0  0  0  0
   13.3375   -3.3349    0.6490 H   0  0  0  1  0  0  0  0  0  0  0  0
   13.3026   -3.9811   -1.1972 O   0  0  0  1  0  0  0  0  0  0  0  0
   12.6444   -3.8494   -1.8834 H   0  0  0  1  0  0  0  0  0  0  0  0
   13.5338   -4.8055    1.5365 N   0  0  0  1  0  0  0  0  0  0  0  0
   13.1104   -5.1268    2.3598 H   0  0  0  1  0  0  0  0  0  0  0  0
   11.9388   -3.5929   -0.0384 O   0  0  0  1  0  0  0  0  0  0  0  0
   12.7211   -4.7433    0.2848 C   0  0  0  1  0  0  0  0  0  0  0  0
   13.3720   -5.2513   -0.3958 H   0  0  0  1  0  0  0  0  0  0  0  0
   10.5153   -3.2251    1.0909 C   0  0  0  1  0  0  0  0  0  0  0  0
   10.5174   -2.1948    0.8022 H   0  0  0  1  0  0  0  0  0  0  0  0
   11.0016   -3.3316    2.0381 H   0  0  0  1  0  0  0  0  0  0  0  0
    9.1749   -3.6837    1.1942 O   0  0  0  1  0  0  0  0  0  0  0  0
    8.9022   -4.0677    0.3577 H   0  0  0  1  0  0  0  0  0  0  0  0
   14.8665   -4.4245    1.5740 C   0  0  0  1  0  0  0  0  0  0  0  0
   15.3572   -3.9241    0.5784 O   0  0  0  1  0  0  0  0  0  0  0  0
   15.6531   -4.6419    2.8360 C   0  0  0  1  0  0  0  0  0  0  0  0
   15.6214   -5.6776    3.1027 H   0  0  0  1  0  0  0  0  0  0  0  0
   15.2288   -4.0574    3.6256 H   0  0  0  1  0  0  0  0  0  0  0  0
   16.6690   -4.3453    2.6784 H   0  0  0  1  0  0  0  0  0  0  0  0
  1  2  1  0  0  0  0
  1  3  1  0  0  0  0
  1  5  1  0  0  0  0
  1 18  1  0  0  0  0
  3  4  1  0  0  0  0
  5  6  1  0  0  0  0
  5  7  1  0  0  0  0
  5  9  1  0  0  0  0
  7  8  1  0  0  0  0
  9 10  1  0  0  0  0
  9 17  1  0  0  0  0
  9 20  1  0  0  0  0
 11 12  1  0  0  0  0
 11 13  1  0  0  0  0
 11 17  1  0  0  0  0
 11 18  1  0  0  0  0
 13 14  1  0  0  0  0
 15 16  1  0  0  0  0
 15 18  1  0  0  0  0
 15 25  1  0  0  0  0
 18 19  1  0  0  0  0
 20 21  1  0  0  0  0
 20 22  1  0  0  0  0
 20 23  1  0  0  0  0
 23 24  1  0  0  0  0
 25 26  2  0  0  0  0
 25 27  1  0  0  0  0
 27 28  1  0  0  0  0
 27 29  1  0  0  0  0
 27 30  1  0  0  0  0
M  END
> <ConfClashScore>
0.0530182 

> <ConfOneFourInteractionScore>
-0.953051 

> <ConfScore>
5.92985 

> <ConfScorePBest>
0.00819748 

> <ConfTolerance>
0.745714 

$$$$
L09.****
  PyMOL2.4          3D                             0

 30 30  0  0  0  0  0  0  0  0999 V2000
   11.9492   -5.3223    0.1201 C   0  0  0  1  0  0  0  0  0  0  0  0
   11.6707   -6.2921   -0.2359 H   0  0  0  1  0  0  0  0  0  0  0  0
   12.4470   -5.6217    1.4125 O   0  0  0  1  0  0  0  0  0  0  0  0
   12.8432   -4.8347    1.7936 H   0  0  0  1  0  0  0  0  0  0  0  0
   11.2809   -4.8461    0.2119 C   0  0  0  1  0  0  0  0  0  0  0  0
   10.9296   -4.8497    1.2226 H   0  0  0  1  0  0  0  0  0  0  0  0
   10.2821   -5.6091   -0.4604 O   0  0  0  1  0  0  0  0  0  0  0  0
   10.0038   -6.3372    0.1000 H   0  0  0  1  0  0  0  0  0  0  0  0
   11.2668   -4.0878   -0.1127 C   0  0  0  1  0  0  0  0  0  0  0  0
   11.0128   -3.3857    0.6537 H   0  0  0  1  0  0  0  0  0  0  0  0
   12.5883   -4.2808   -0.6210 C   0  0  0  1  0  0  0  0  0  0  0  0
   12.9508   -4.2704   -1.6277 H   0  0  0  1  0  0  0  0  0  0  0  0
   13.5767   -3.5887    0.0694 O   0  0  0  1  0  0  0  0  0  0  0  0
   13.1687   -2.9495    0.6581 H   0  0  0  1  0  0  0  0  0  0  0  0
   12.8302   -5.9513   -1.4081 N   0  0  0  1  0  0  0  0  0  0  0  0
   12.1468   -6.0254   -2.1067 H   0  0  0  1  0  0  0  0  0  0  0  0
   11.9209   -3.8056   -0.5291 O   0  0  0  1  0  0  0  0  0  0  0  0
   12.6024   -5.0391   -0.2964 C   0  0  0  1  0  0  0  0  0  0  0  0
   13.4954   -5.1796    0.2762 H   0  0  0  1  0  0  0  0  0  0  0  0
   10.1095   -3.8865   -1.0519 C   0  0  0  1  0  0  0  0  0  0  0  0
    9.8719   -2.8438   -1.0854 H   0  0  0  1  0  0  0  0  0  0  0  0
    9.2676   -4.4330   -0.6813 H   0  0  0  1  0  0  0  0  0  0  0  0
   10.3971   -4.3310   -2.3699 O   0  0  0  1  0  0  0  0  0  0  0  0
   10.7082   -3.5913   -2.8968 H   0  0  0  1  0  0  0  0  0  0  0  0
   13.9361   -6.6892   -1.5089 C   0  0  0  1  0  0  0  0  0  0  0  0
   14.8843   -6.6787   -0.7250 O   0  0  0  1  0  0  0  0  0  0  0  0
   14.0176   -7.6290   -2.7148 C   0  0  0  1  0  0  0  0  0  0  0  0
   14.6978   -8.4267   -2.5006 H   0  0  0  1  0  0  0  0  0  0  0  0
   14.3641   -7.0846   -3.5683 H   0  0  0  1  0  0  0  0  0  0  0  0
   13.0477   -8.0326   -2.9183 H   0  0  0  1  0  0  0  0  0  0  0  0
  1  2  1  0  0  0  0
  1  3  1  0  0  0  0
  1  5  1  0  0  0  0
  1 18  1  0  0  0  0
  3  4  1  0  0  0  0
  5  6  1  0  0  0  0
  5  7  1  0  0  0  0
  5  9  1  0  0  0  0
  7  8  1  0  0  0  0
  9 10  1  0  0  0  0
  9 17  1  0  0  0  0
  9 20  1  0  0  0  0
 11 12  1  0  0  0  0
 11 13  1  0  0  0  0
 11 17  1  0  0  0  0
 11 18  1  0  0  0  0
 13 14  1  0  0  0  0
 15 16  1  0  0  0  0
 15 18  1  0  0  0  0
 15 25  1  0  0  0  0
 18 19  1  0  0  0  0
 20 21  1  0  0  0  0
 20 22  1  0  0  0  0
 20 23  1  0  0  0  0
 23 24  1  0  0  0  0
 25 26  2  0  0  0  0
 25 27  1  0  0  0  0
 27 28  1  0  0  0  0
 27 29  1  0  0  0  0
 27 30  1  0  0  0  0
M  END
> <ConfClashScore>
0.0543372 

> <ConfOneFourInteractionScore>
-0.972815 

> <ConfScore>
5.94273 

> <ConfScorePBest>
0.00809448 

> <ConfTolerance>
0.25 

$$$$
L09.****
  PyMOL2.4          3D                             0

 30 30  0  0  0  0  0  0  0  0999 V2000
   12.0295   -5.2837    0.0987 C   0  0  0  1  0  0  0  0  0  0  0  0
   12.0181   -5.6499    1.1040 H   0  0  0  1  0  0  0  0  0  0  0  0
   12.0496   -6.5031   -0.6480 O   0  0  0  1  0  0  0  0  0  0  0  0
   11.5737   -7.1825   -0.1649 H   0  0  0  1  0  0  0  0  0  0  0  0
   11.3002   -4.9450   -0.0890 C   0  0  0  1  0  0  0  0  0  0  0  0
   10.7279   -5.6248   -0.6850 H   0  0  0  1  0  0  0  0  0  0  0  0
   10.5411   -4.9214    1.1146 O   0  0  0  1  0  0  0  0  0  0  0  0
   11.0297   -4.4486    1.7924 H   0  0  0  1  0  0  0  0  0  0  0  0
   11.2689   -4.1895   -0.4190 C   0  0  0  1  0  0  0  0  0  0  0  0
   10.6291   -3.5819    0.1864 H   0  0  0  1  0  0  0  0  0  0  0  0
   12.6950   -4.1106   -0.3740 C   0  0  0  1  0  0  0  0  0  0  0  0
   13.4222   -3.9708   -1.1464 H   0  0  0  1  0  0  0  0  0  0  0  0
   13.1634   -3.2843    0.6539 O   0  0  0  1  0  0  0  0  0  0  0  0
   12.4390   -3.0659    1.2447 H   0  0  0  1  0  0  0  0  0  0  0  0
   13.5029   -5.6572   -1.0027 N   0  0  0  1  0  0  0  0  0  0  0  0
   13.4947   -5.3966   -1.9474 H   0  0  0  1  0  0  0  0  0  0  0  0
   11.9667   -3.7728   -0.5612 O   0  0  0  1  0  0  0  0  0  0  0  0
   12.7263   -4.8661   -0.0440 C   0  0  0  1  0  0  0  0  0  0  0  0
   13.3643   -4.8820    0.8148 H   0  0  0  1  0  0  0  0  0  0  0  0
   10.4814   -4.1979   -1.7002 C   0  0  0  1  0  0  0  0  0  0  0  0
   10.9915   -4.8119   -2.4127 H   0  0  0  1  0  0  0  0  0  0  0  0
   10.4191   -3.1964   -2.0715 H   0  0  0  1  0  0  0  0  0  0  0  0
    9.1612   -4.7029   -1.5240 O   0  0  0  1  0  0  0  0  0  0  0  0
    8.9682   -5.3426   -2.2133 H   0  0  0  1  0  0  0  0  0  0  0  0
   14.2216   -6.7213   -0.6336 C   0  0  0  1  0  0  0  0  0  0  0  0
   14.3319   -7.0808    0.5355 O   0  0  0  1  0  0  0  0  0  0  0  0
   14.9065   -7.4753   -1.7568 C   0  0  0  1  0  0  0  0  0  0  0  0
   15.6227   -8.1556   -1.3455 H   0  0  0  1  0  0  0  0  0  0  0  0
   15.4037   -6.7807   -2.4011 H   0  0  0  1  0  0  0  0  0  0  0  0
   14.1763   -8.0219   -2.3163 H   0  0  0  1  0  0  0  0  0  0  0  0
  1  2  1  0  0  0  0
  1  3  1  0  0  0  0
  1  5  1  0  0  0  0
  1 18  1  0  0  0  0
  3  4  1  0  0  0  0
  5  6  1  0  0  0  0
  5  7  1  0  0  0  0
  5  9  1  0  0  0  0
  7  8  1  0  0  0  0
  9 10  1  0  0  0  0
  9 17  1  0  0  0  0
  9 20  1  0  0  0  0
 11 12  1  0  0  0  0
 11 13  1  0  0  0  0
 11 17  1  0  0  0  0
 11 18  1  0  0  0  0
 13 14  1  0  0  0  0
 15 16  1  0  0  0  0
 15 18  1  0  0  0  0
 15 25  1  0  0  0  0
 18 19  1  0  0  0  0
 20 21  1  0  0  0  0
 20 22  1  0  0  0  0
 20 23  1  0  0  0  0
 23 24  1  0  0  0  0
 25 26  2  0  0  0  0
 25 27  1  0  0  0  0
 27 28  1  0  0  0  0
 27 29  1  0  0  0  0
 27 30  1  0  0  0  0
M  END
> <ConfClashScore>
0.0545427 

> <ConfOneFourInteractionScore>
-0.953051 

> <ConfScore>
6.02695 

> <ConfScorePBest>
0.00799148 

> <ConfTolerance>
0.711066 

$$$$
L09.****
  PyMOL2.4          3D                             0

 30 30  0  0  0  0  0  0  0  0999 V2000
   11.9431   -5.3209   -0.0987 C   0  0  0  1  0  0  0  0  0  0  0  0
   11.9926   -6.2184   -0.6793 H   0  0  0  1  0  0  0  0  0  0  0  0
   12.0115   -5.8391    1.2323 O   0  0  0  1  0  0  0  0  0  0  0  0
   12.6881   -6.5186    1.2773 H   0  0  0  1  0  0  0  0  0  0  0  0
   11.2135   -4.9505   -0.2092 C   0  0  0  1  0  0  0  0  0  0  0  0
   10.6356   -5.5090   -0.9156 H   0  0  0  1  0  0  0  0  0  0  0  0
   10.4384   -5.1216    0.9748 O   0  0  0  1  0  0  0  0  0  0  0  0
    9.9858   -5.9676    0.9420 H   0  0  0  1  0  0  0  0  0  0  0  0
   11.1827   -4.1492   -0.4032 C   0  0  0  1  0  0  0  0  0  0  0  0
   10.5330   -3.9847   -1.2372 H   0  0  0  1  0  0  0  0  0  0  0  0
   12.6102   -4.0879   -0.3763 C   0  0  0  1  0  0  0  0  0  0  0  0
   13.3367   -3.8074   -1.1100 H   0  0  0  1  0  0  0  0  0  0  0  0
   13.0631   -3.4453    0.7878 O   0  0  0  1  0  0  0  0  0  0  0  0
   13.6010   -2.6875    0.5469 H   0  0  0  1  0  0  0  0  0  0  0  0
   13.4179   -5.5302   -1.2327 N   0  0  0  1  0  0  0  0  0  0  0  0
   13.2618   -5.2676   -2.1638 H   0  0  0  1  0  0  0  0  0  0  0  0
   11.8816   -3.7184   -0.4866 O   0  0  0  1  0  0  0  0  0  0  0  0
   12.6409   -4.8892   -0.1823 C   0  0  0  1  0  0  0  0  0  0  0  0
   13.2731   -5.0398    0.6677 H   0  0  0  1  0  0  0  0  0  0  0  0
   10.4803   -3.3526    0.6771 C   0  0  0  1  0  0  0  0  0  0  0  0
   10.7823   -3.6894    1.6468 H   0  0  0  1  0  0  0  0  0  0  0  0
    9.4187   -3.4466    0.5810 H   0  0  0  1  0  0  0  0  0  0  0  0
   10.8855   -1.9883    0.4696 O   0  0  0  1  0  0  0  0  0  0  0  0
   11.0365   -1.5661    1.3184 H   0  0  0  1  0  0  0  0  0  0  0  0
   14.3658   -6.4940   -0.9634 C   0  0  0  1  0  0  0  0  0  0  0  0
   14.5252   -6.8915    0.1753 O   0  0  0  1  0  0  0  0  0  0  0  0
   15.1507   -6.9900   -2.1427 C   0  0  0  1  0  0  0  0  0  0  0  0
   14.4795   -7.3729   -2.8829 H   0  0  0  1  0  0  0  0  0  0  0  0
   15.8147   -7.7675   -1.8273 H   0  0  0  1  0  0  0  0  0  0  0  0
   15.7173   -6.1832   -2.5585 H   0  0  0  1  0  0  0  0  0  0  0  0
  1  2  1  0  0  0  0
  1  3  1  0  0  0  0
  1  5  1  0  0  0  0
  1 18  1  0  0  0  0
  3  4  1  0  0  0  0
  5  6  1  0  0  0  0
  5  7  1  0  0  0  0
  5  9  1  0  0  0  0
  7  8  1  0  0  0  0
  9 10  1  0  0  0  0
  9 17  1  0  0  0  0
  9 20  1  0  0  0  0
 11 12  1  0  0  0  0
 11 13  1  0  0  0  0
 11 17  1  0  0  0  0
 11 18  1  0  0  0  0
 13 14  1  0  0  0  0
 15 16  1  0  0  0  0
 15 18  1  0  0  0  0
 15 25  1  0  0  0  0
 18 19  1  0  0  0  0
 20 21  1  0  0  0  0
 20 22  1  0  0  0  0
 20 23  1  0  0  0  0
 23 24  1  0  0  0  0
 25 26  2  0  0  0  0
 25 27  1  0  0  0  0
 27 28  1  0  0  0  0
 27 29  1  0  0  0  0
 27 30  1  0  0  0  0
M  END
> <ConfClashScore>
0.0540021 

> <ConfOneFourInteractionScore>
-0.973521 

> <ConfScore>
6.11933 

> <ConfScorePBest>
0.00788848 

> <ConfTolerance>
0.274373 

$$$$
L09.****
  PyMOL2.4          3D                             0

 30 30  0  0  0  0  0  0  0  0999 V2000
   11.9880   -5.2826    0.0853 C   0  0  0  1  0  0  0  0  0  0  0  0
   12.0247   -5.6818    1.0774 H   0  0  0  1  0  0  0  0  0  0  0  0
   11.9085   -6.4668   -0.7093 O   0  0  0  1  0  0  0  0  0  0  0  0
   12.1768   -7.2240   -0.1838 H   0  0  0  1  0  0  0  0  0  0  0  0
   11.2679   -4.9044   -0.0568 C   0  0  0  1  0  0  0  0  0  0  0  0
   10.5831   -5.5586   -0.5547 H   0  0  0  1  0  0  0  0  0  0  0  0
   10.7121   -4.8356    1.2531 O   0  0  0  1  0  0  0  0  0  0  0  0
   10.1306   -5.5862    1.3943 H   0  0  0  1  0  0  0  0  0  0  0  0
   11.2567   -4.1518   -0.3946 C   0  0  0  1  0  0  0  0  0  0  0  0
   10.6051   -4.1501   -1.2433 H   0  0  0  1  0  0  0  0  0  0  0  0
   12.6847   -4.1546   -0.4485 C   0  0  0  1  0  0  0  0  0  0  0  0
   13.3628   -4.0656   -1.2713 H   0  0  0  1  0  0  0  0  0  0  0  0
   13.2658   -3.3507    0.5274 O   0  0  0  1  0  0  0  0  0  0  0  0
   12.9056   -2.4628    0.4674 H   0  0  0  1  0  0  0  0  0  0  0  0
   13.5546   -4.8512    1.1535 N   0  0  0  1  0  0  0  0  0  0  0  0
   13.1371   -4.5784    1.9971 H   0  0  0  1  0  0  0  0  0  0  0  0
   11.9656   -3.7774   -0.5903 O   0  0  0  1  0  0  0  0  0  0  0  0
   12.6959   -4.9072   -0.1107 C   0  0  0  1  0  0  0  0  0  0  0  0
   13.2888   -5.5602   -0.7166 H   0  0  0  1  0  0  0  0  0  0  0  0
   10.5517   -3.1665    0.4965 C   0  0  0  1  0  0  0  0  0  0  0  0
   11.1876   -2.8914    1.3118 H   0  0  0  1  0  0  0  0  0  0  0  0
    9.6497   -3.5986    0.8770 H   0  0  0  1  0  0  0  0  0  0  0  0
   10.2477   -2.0227   -0.2887 O   0  0  0  1  0  0  0  0  0  0  0  0
   10.9145   -1.9159   -0.9710 H   0  0  0  1  0  0  0  0  0  0  0  0
   14.8542   -5.1611    1.1478 C   0  0  0  1  0  0  0  0  0  0  0  0
   15.4530   -5.5144    0.1353 O   0  0  0  1  0  0  0  0  0  0  0  0
   15.5634   -5.0512    2.4835 C   0  0  0  1  0  0  0  0  0  0  0  0
   15.5071   -4.0425    2.8359 H   0  0  0  1  0  0  0  0  0  0  0  0
   16.5896   -5.3310    2.3663 H   0  0  0  1  0  0  0  0  0  0  0  0
   15.0942   -5.7026    3.1908 H   0  0  0  1  0  0  0  0  0  0  0  0
  1  2  1  0  0  0  0
  1  3  1  0  0  0  0
  1  5  1  0  0  0  0
  1 18  1  0  0  0  0
  3  4  1  0  0  0  0
  5  6  1  0  0  0  0
  5  7  1  0  0  0  0
  5  9  1  0  0  0  0
  7  8  1  0  0  0  0
  9 10  1  0  0  0  0
  9 17  1  0  0  0  0
  9 20  1  0  0  0  0
 11 12  1  0  0  0  0
 11 13  1  0  0  0  0
 11 17  1  0  0  0  0
 11 18  1  0  0  0  0
 13 14  1  0  0  0  0
 15 16  1  0  0  0  0
 15 18  1  0  0  0  0
 15 25  1  0  0  0  0
 18 19  1  0  0  0  0
 20 21  1  0  0  0  0
 20 22  1  0  0  0  0
 20 23  1  0  0  0  0
 23 24  1  0  0  0  0
 25 26  2  0  0  0  0
 25 27  1  0  0  0  0
 27 28  1  0  0  0  0
 27 29  1  0  0  0  0
 27 30  1  0  0  0  0
M  END
> <ConfClashScore>
0.0562849 

> <ConfOneFourInteractionScore>
-0.942232 

> <ConfScore>
6.15431 

> <ConfScorePBest>
0.00778548 

> <ConfTolerance>
0.639305 

$$$$
L09.****
  PyMOL2.4          3D                             0

 30 30  0  0  0  0  0  0  0  0999 V2000
   11.9879   -5.2598    0.1444 C   0  0  0  1  0  0  0  0  0  0  0  0
   11.9292   -5.6555    1.1368 H   0  0  0  1  0  0  0  0  0  0  0  0
   12.0446   -6.4491   -0.6474 O   0  0  0  1  0  0  0  0  0  0  0  0
   12.1245   -7.2135   -0.0721 H   0  0  0  1  0  0  0  0  0  0  0  0
   11.2737   -4.9110   -0.0797 C   0  0  0  1  0  0  0  0  0  0  0  0
   10.7151   -5.5894   -0.6900 H   0  0  0  1  0  0  0  0  0  0  0  0
   10.4626   -4.8557    1.0912 O   0  0  0  1  0  0  0  0  0  0  0  0
   10.2483   -5.7474    1.3750 H   0  0  0  1  0  0  0  0  0  0  0  0
   11.2706   -4.1601   -0.4215 C   0  0  0  1  0  0  0  0  0  0  0  0
   10.7670   -4.2263   -1.3632 H   0  0  0  1  0  0  0  0  0  0  0  0
   12.6946   -4.1059   -0.3156 C   0  0  0  1  0  0  0  0  0  0  0  0
   13.4412   -4.0106   -1.0762 H   0  0  0  1  0  0  0  0  0  0  0  0
   13.1624   -3.2707    0.6809 O   0  0  0  1  0  0  0  0  0  0  0  0
   12.9506   -2.3604    0.4617 H   0  0  0  1  0  0  0  0  0  0  0  0
   13.5509   -5.7402   -0.7547 N   0  0  0  1  0  0  0  0  0  0  0  0
   13.3490   -5.8752   -1.7041 H   0  0  0  1  0  0  0  0  0  0  0  0
   11.9815   -3.7580   -0.5392 O   0  0  0  1  0  0  0  0  0  0  0  0
   12.6978   -4.8568    0.0261 C   0  0  0  1  0  0  0  0  0  0  0  0
   13.2393   -4.8208    0.9483 H   0  0  0  1  0  0  0  0  0  0  0  0
   10.3874   -3.1467    0.2703 C   0  0  0  1  0  0  0  0  0  0  0  0
    9.4417   -3.6015    0.4795 H   0  0  0  1  0  0  0  0  0  0  0  0
   10.2453   -2.3119   -0.3838 H   0  0  0  1  0  0  0  0  0  0  0  0
   10.9485   -2.6805    1.4890 O   0  0  0  1  0  0  0  0  0  0  0  0
   11.1256   -1.7394    1.4209 H   0  0  0  1  0  0  0  0  0  0  0  0
   14.5999   -6.3735   -0.2221 C   0  0  0  1  0  0  0  0  0  0  0  0
   14.9850   -6.1777    0.9188 O   0  0  0  1  0  0  0  0  0  0  0  0
   15.2991   -7.3675   -1.1290 C   0  0  0  1  0  0  0  0  0  0  0  0
   16.3369   -7.1170   -1.2005 H   0  0  0  1  0  0  0  0  0  0  0  0
   14.8565   -7.3343   -2.1026 H   0  0  0  1  0  0  0  0  0  0  0  0
   15.1974   -8.3525   -0.7238 H   0  0  0  1  0  0  0  0  0  0  0  0
  1  2  1  0  0  0  0
  1  3  1  0  0  0  0
  1  5  1  0  0  0  0
  1 18  1  0  0  0  0
  3  4  1  0  0  0  0
  5  6  1  0  0  0  0
  5  7  1  0  0  0  0
  5  9  1  0  0  0  0
  7  8  1  0  0  0  0
  9 10  1  0  0  0  0
  9 17  1  0  0  0  0
  9 20  1  0  0  0  0
 11 12  1  0  0  0  0
 11 13  1  0  0  0  0
 11 17  1  0  0  0  0
 11 18  1  0  0  0  0
 13 14  1  0  0  0  0
 15 16  1  0  0  0  0
 15 18  1  0  0  0  0
 15 25  1  0  0  0  0
 18 19  1  0  0  0  0
 20 21  1  0  0  0  0
 20 22  1  0  0  0  0
 20 23  1  0  0  0  0
 23 24  1  0  0  0  0
 25 26  2  0  0  0  0
 25 27  1  0  0  0  0
 27 28  1  0  0  0  0
 27 29  1  0  0  0  0
 27 30  1  0  0  0  0
M  END
> <ConfClashScore>
0.0573011 

> <ConfOneFourInteractionScore>
-0.972815 

> <ConfScore>
6.22491 

> <ConfScorePBest>
0.00768248 

> <ConfTolerance>
0.424353 

$$$$
L09.****
  PyMOL2.4          3D                             0

 30 30  0  0  0  0  0  0  0  0999 V2000
   12.0204   -5.2379    0.0744 C   0  0  0  1  0  0  0  0  0  0  0  0
   11.9305   -6.1679   -0.4471 H   0  0  0  1  0  0  0  0  0  0  0  0
   12.4294   -5.6764    1.3725 O   0  0  0  1  0  0  0  0  0  0  0  0
   11.7130   -6.1626    1.7870 H   0  0  0  1  0  0  0  0  0  0  0  0
   11.2764   -4.8949    0.1776 C   0  0  0  1  0  0  0  0  0  0  0  0
   10.8781   -5.1077    1.1476 H   0  0  0  1  0  0  0  0  0  0  0  0
   10.4260   -5.6600   -0.6728 O   0  0  0  1  0  0  0  0  0  0  0  0
   10.2757   -6.5240   -0.2824 H   0  0  0  1  0  0  0  0  0  0  0  0
   11.1522   -4.1072   -0.0340 C   0  0  0  1  0  0  0  0  0  0  0  0
   10.7425   -3.5842    0.8047 H   0  0  0  1  0  0  0  0  0  0  0  0
   12.5149   -4.0047   -0.4520 C   0  0  0  1  0  0  0  0  0  0  0  0
   12.9685   -3.7462   -1.3860 H   0  0  0  1  0  0  0  0  0  0  0  0
   13.2766   -3.2817    0.4874 O   0  0  0  1  0  0  0  0  0  0  0  0
   14.2045   -3.3181    0.2437 H   0  0  0  1  0  0  0  0  0  0  0  0
   13.1537   -5.4926   -1.4216 N   0  0  0  1  0  0  0  0  0  0  0  0
   12.5325   -6.0177   -1.9681 H   0  0  0  1  0  0  0  0  0  0  0  0
   11.7720   -3.6626   -0.3489 O   0  0  0  1  0  0  0  0  0  0  0  0
   12.6391   -4.7923   -0.2404 C   0  0  0  1  0  0  0  0  0  0  0  0
   13.4855   -4.8535    0.4113 H   0  0  0  1  0  0  0  0  0  0  0  0
   10.0699   -3.8636   -1.0461 C   0  0  0  1  0  0  0  0  0  0  0  0
    9.1511   -4.2821   -0.6919 H   0  0  0  1  0  0  0  0  0  0  0  0
   10.3391   -4.3257   -1.9729 H   0  0  0  1  0  0  0  0  0  0  0  0
    9.9066   -2.4656   -1.2451 O   0  0  0  1  0  0  0  0  0  0  0  0
    8.9755   -2.2658   -1.3661 H   0  0  0  1  0  0  0  0  0  0  0  0
   14.4401   -5.4396   -1.7786 C   0  0  0  1  0  0  0  0  0  0  0  0
   15.2802   -4.7862   -1.1614 O   0  0  0  1  0  0  0  0  0  0  0  0
   14.8161   -6.2430   -3.0084 C   0  0  0  1  0  0  0  0  0  0  0  0
   15.3859   -5.6300   -3.6750 H   0  0  0  1  0  0  0  0  0  0  0  0
   13.9271   -6.5758   -3.5022 H   0  0  0  1  0  0  0  0  0  0  0  0
   15.4006   -7.0901   -2.7157 H   0  0  0  1  0  0  0  0  0  0  0  0
  1  2  1  0  0  0  0
  1  3  1  0  0  0  0
  1  5  1  0  0  0  0
  1 18  1  0  0  0  0
  3  4  1  0  0  0  0
  5  6  1  0  0  0  0
  5  7  1  0  0  0  0
  5  9  1  0  0  0  0
  7  8  1  0  0  0  0
  9 10  1  0  0  0  0
  9 17  1  0  0  0  0
  9 20  1  0  0  0  0
 11 12  1  0  0  0  0
 11 13  1  0  0  0  0
 11 17  1  0  0  0  0
 11 18  1  0  0  0  0
 13 14  1  0  0  0  0
 15 16  1  0  0  0  0
 15 18  1  0  0  0  0
 15 25  1  0  0  0  0
 18 19  1  0  0  0  0
 20 21  1  0  0  0  0
 20 22  1  0  0  0  0
 20 23  1  0  0  0  0
 23 24  1  0  0  0  0
 25 26  2  0  0  0  0
 25 27  1  0  0  0  0
 27 28  1  0  0  0  0
 27 29  1  0  0  0  0
 27 30  1  0  0  0  0
M  END
> <ConfClashScore>
0.057056 

> <ConfOneFourInteractionScore>
-0.968695 

> <ConfScore>
6.23188 

> <ConfScorePBest>
0.00757948 

> <ConfTolerance>
0.597215 

$$$$
L09.****
  PyMOL2.4          3D                             0

 30 30  0  0  0  0  0  0  0  0999 V2000
   12.0952   -5.1961    0.3809 C   0  0  0  1  0  0  0  0  0  0  0  0
   12.1280   -5.7573    1.2914 H   0  0  0  1  0  0  0  0  0  0  0  0
   12.3024   -6.2129   -0.6007 O   0  0  0  1  0  0  0  0  0  0  0  0
   12.0278   -7.0616   -0.2458 H   0  0  0  1  0  0  0  0  0  0  0  0
   11.3421   -4.8822    0.2541 C   0  0  0  1  0  0  0  0  0  0  0  0
   10.7069   -5.1189    1.0820 H   0  0  0  1  0  0  0  0  0  0  0  0
   10.7311   -5.6347   -0.7910 O   0  0  0  1  0  0  0  0  0  0  0  0
    9.7858   -5.4678   -0.7956 H   0  0  0  1  0  0  0  0  0  0  0  0
   11.2550   -4.0867    0.0536 C   0  0  0  1  0  0  0  0  0  0  0  0
   10.6538   -4.0033   -0.8276 H   0  0  0  1  0  0  0  0  0  0  0  0
   12.6731   -3.9181    0.1064 C   0  0  0  1  0  0  0  0  0  0  0  0
   13.2992   -3.2731    0.6868 H   0  0  0  1  0  0  0  0  0  0  0  0
   13.2651   -3.8781   -1.1666 O   0  0  0  1  0  0  0  0  0  0  0  0
   12.6016   -4.0655   -1.8346 H   0  0  0  1  0  0  0  0  0  0  0  0
   13.5005   -4.7583    1.6044 N   0  0  0  1  0  0  0  0  0  0  0  0
   14.3263   -5.2845    1.6435 H   0  0  0  1  0  0  0  0  0  0  0  0
   11.9211   -3.6051   -0.0201 O   0  0  0  1  0  0  0  0  0  0  0  0
   12.7601   -4.7137    0.3069 C   0  0  0  1  0  0  0  0  0  0  0  0
   13.4717   -5.1755   -0.3452 H   0  0  0  1  0  0  0  0  0  0  0  0
   10.4085   -3.3292    1.0358 C   0  0  0  1  0  0  0  0  0  0  0  0
   10.9718   -2.5113    1.4341 H   0  0  0  1  0  0  0  0  0  0  0  0
   10.1161   -3.9824    1.8312 H   0  0  0  1  0  0  0  0  0  0  0  0
    9.2493   -2.8309    0.3836 O   0  0  0  1  0  0  0  0  0  0  0  0
    9.0675   -1.9395    0.6900 H   0  0  0  1  0  0  0  0  0  0  0  0
   13.1091   -4.1277    2.7120 C   0  0  0  1  0  0  0  0  0  0  0  0
   12.0737   -3.4688    2.7972 O   0  0  0  1  0  0  0  0  0  0  0  0
   13.9956   -4.2274    3.9485 C   0  0  0  1  0  0  0  0  0  0  0  0
   14.0769   -3.2645    4.4082 H   0  0  0  1  0  0  0  0  0  0  0  0
   14.9684   -4.5694    3.6630 H   0  0  0  1  0  0  0  0  0  0  0  0
   13.5634   -4.9181    4.6421 H   0  0  0  1  0  0  0  0  0  0  0  0
  1  2  1  0  0  0  0
  1  3  1  0  0  0  0
  1  5  1  0  0  0  0
  1 18  1  0  0  0  0
  3  4  1  0  0  0  0
  5  6  1  0  0  0  0
  5  7  1  0  0  0  0
  5  9  1  0  0  0  0
  7  8  1  0  0  0  0
  9 10  1  0  0  0  0
  9 17  1  0  0  0  0
  9 20  1  0  0  0  0
 11 12  1  0  0  0  0
 11 13  1  0  0  0  0
 11 17  1  0  0  0  0
 11 18  1  0  0  0  0
 13 14  1  0  0  0  0
 15 16  1  0  0  0  0
 15 18  1  0  0  0  0
 15 25  1  0  0  0  0
 18 19  1  0  0  0  0
 20 21  1  0  0  0  0
 20 22  1  0  0  0  0
 20 23  1  0  0  0  0
 23 24  1  0  0  0  0
 25 26  2  0  0  0  0
 25 27  1  0  0  0  0
 27 28  1  0  0  0  0
 27 29  1  0  0  0  0
 27 30  1  0  0  0  0
M  END
> <ConfClashScore>
0.0542023 

> <ConfOneFourInteractionScore>
-0.948422 

> <ConfScore>
6.28439 

> <ConfScorePBest>
0.00747648 

> <ConfTolerance>
0.391031 

$$$$
L09.****
  PyMOL2.4          3D                             0

 30 30  0  0  0  0  0  0  0  0999 V2000
   12.0069   -5.2861    0.0135 C   0  0  0  1  0  0  0  0  0  0  0  0
   11.8448   -6.2248   -0.4738 H   0  0  0  1  0  0  0  0  0  0  0  0
   12.2722   -5.7072    1.3540 O   0  0  0  1  0  0  0  0  0  0  0  0
   11.8115   -6.5312    1.5282 H   0  0  0  1  0  0  0  0  0  0  0  0
   11.2958   -4.8697    0.0654 C   0  0  0  1  0  0  0  0  0  0  0  0
   10.9209   -4.9313    1.0657 H   0  0  0  1  0  0  0  0  0  0  0  0
   10.3173   -5.6284   -0.6408 O   0  0  0  1  0  0  0  0  0  0  0  0
   10.0578   -6.3871   -0.1129 H   0  0  0  1  0  0  0  0  0  0  0  0
   11.2557   -4.0876   -0.1942 C   0  0  0  1  0  0  0  0  0  0  0  0
   10.4119   -3.9430   -0.8359 H   0  0  0  1  0  0  0  0  0  0  0  0
   12.6368   -4.1374   -0.5576 C   0  0  0  1  0  0  0  0  0  0  0  0
   13.1279   -3.9927   -1.4972 H   0  0  0  1  0  0  0  0  0  0  0  0
   13.4575   -3.4552    0.3355 O   0  0  0  1  0  0  0  0  0  0  0  0
   13.1881   -2.5348    0.3793 H   0  0  0  1  0  0  0  0  0  0  0  0
   13.7757   -5.0407    0.6700 N   0  0  0  1  0  0  0  0  0  0  0  0
   13.7826   -4.4810    1.4744 H   0  0  0  1  0  0  0  0  0  0  0  0
   11.9267   -3.7220   -0.5056 O   0  0  0  1  0  0  0  0  0  0  0  0
   12.6769   -4.9195   -0.2980 C   0  0  0  1  0  0  0  0  0  0  0  0
   13.0566   -5.5240   -1.0951 H   0  0  0  1  0  0  0  0  0  0  0  0
   10.8879   -3.2153    0.9745 C   0  0  0  1  0  0  0  0  0  0  0  0
    9.9208   -3.4869    1.3430 H   0  0  0  1  0  0  0  0  0  0  0  0
   10.8805   -2.1880    0.6754 H   0  0  0  1  0  0  0  0  0  0  0  0
   11.8662   -3.4194    1.9837 O   0  0  0  1  0  0  0  0  0  0  0  0
   11.9962   -2.6041    2.4736 H   0  0  0  1  0  0  0  0  0  0  0  0
   14.7750   -5.9210    0.4538 C   0  0  0  1  0  0  0  0  0  0  0  0
   14.7852   -6.6379   -0.5460 O   0  0  0  1  0  0  0  0  0  0  0  0
   15.8881   -6.0021    1.4803 C   0  0  0  1  0  0  0  0  0  0  0  0
   16.3390   -5.0386    1.5951 H   0  0  0  1  0  0  0  0  0  0  0  0
   16.6258   -6.7039    1.1514 H   0  0  0  1  0  0  0  0  0  0  0  0
   15.4849   -6.3211    2.4187 H   0  0  0  1  0  0  0  0  0  0  0  0
  1  2  1  0  0  0  0
  1  3  1  0  0  0  0
  1  5  1  0  0  0  0
  1 18  1  0  0  0  0
  3  4  1  0  0  0  0
  5  6  1  0  0  0  0
  5  7  1  0  0  0  0
  5  9  1  0  0  0  0
  7  8  1  0  0  0  0
  9 10  1  0  0  0  0
  9 17  1  0  0  0  0
  9 20  1  0  0  0  0
 11 12  1  0  0  0  0
 11 13  1  0  0  0  0
 11 17  1  0  0  0  0
 11 18  1  0  0  0  0
 13 14  1  0  0  0  0
 15 16  1  0  0  0  0
 15 18  1  0  0  0  0
 15 25  1  0  0  0  0
 18 19  1  0  0  0  0
 20 21  1  0  0  0  0
 20 22  1  0  0  0  0
 20 23  1  0  0  0  0
 23 24  1  0  0  0  0
 25 26  2  0  0  0  0
 25 27  1  0  0  0  0
 27 28  1  0  0  0  0
 27 29  1  0  0  0  0
 27 30  1  0  0  0  0
M  END
> <ConfClashScore>
0.0579845 

> <ConfOneFourInteractionScore>
-0.967492 

> <ConfScore>
6.3264 

> <ConfScorePBest>
0.00737347 

> <ConfTolerance>
0.718228 

$$$$
L09.****
  PyMOL2.4          3D                             0

 30 30  0  0  0  0  0  0  0  0999 V2000
   11.9125   -5.3090    0.2070 C   0  0  0  1  0  0  0  0  0  0  0  0
   11.9400   -6.1098   -0.5021 H   0  0  0  1  0  0  0  0  0  0  0  0
   11.8521   -6.0177    1.4473 O   0  0  0  1  0  0  0  0  0  0  0  0
   12.5387   -6.6884    1.4669 H   0  0  0  1  0  0  0  0  0  0  0  0
   11.2031   -4.8905    0.1492 C   0  0  0  1  0  0  0  0  0  0  0  0
   10.5170   -5.2139    0.9039 H   0  0  0  1  0  0  0  0  0  0  0  0
   10.6041   -5.4213   -1.0304 O   0  0  0  1  0  0  0  0  0  0  0  0
   11.0338   -5.0485   -1.8036 H   0  0  0  1  0  0  0  0  0  0  0  0
   11.2125   -4.0668    0.1029 C   0  0  0  1  0  0  0  0  0  0  0  0
   10.6540   -3.7601   -0.7567 H   0  0  0  1  0  0  0  0  0  0  0  0
   12.6397   -4.0793    0.1723 C   0  0  0  1  0  0  0  0  0  0  0  0
   13.3015   -3.6462    0.8930 H   0  0  0  1  0  0  0  0  0  0  0  0
   13.2766   -3.7944   -1.0409 O   0  0  0  1  0  0  0  0  0  0  0  0
   12.6228   -3.5260   -1.6907 H   0  0  0  1  0  0  0  0  0  0  0  0
   13.4110   -5.3807   -0.9128 N   0  0  0  1  0  0  0  0  0  0  0  0
   12.9404   -5.7050   -1.7090 H   0  0  0  1  0  0  0  0  0  0  0  0
   11.9313   -3.6617    0.1146 O   0  0  0  1  0  0  0  0  0  0  0  0
   12.6303   -4.9029    0.2186 C   0  0  0  1  0  0  0  0  0  0  0  0
   13.2292   -5.2339    1.0412 H   0  0  0  1  0  0  0  0  0  0  0  0
   10.4188   -3.3869    1.1953 C   0  0  0  1  0  0  0  0  0  0  0  0
   10.7727   -2.3869    1.3355 H   0  0  0  1  0  0  0  0  0  0  0  0
   10.5164   -3.9320    2.1109 H   0  0  0  1  0  0  0  0  0  0  0  0
    9.0552   -3.3670    0.7842 O   0  0  0  1  0  0  0  0  0  0  0  0
    8.7042   -4.2605    0.7951 H   0  0  0  1  0  0  0  0  0  0  0  0
   14.7470   -5.3926   -0.9040 C   0  0  0  1  0  0  0  0  0  0  0  0
   15.4282   -5.0171    0.0488 O   0  0  0  1  0  0  0  0  0  0  0  0
   15.3969   -6.0027   -2.1437 C   0  0  0  1  0  0  0  0  0  0  0  0
   15.3421   -7.0698   -2.0873 H   0  0  0  1  0  0  0  0  0  0  0  0
   16.4222   -5.7007   -2.1938 H   0  0  0  1  0  0  0  0  0  0  0  0
   14.8820   -5.6652   -3.0188 H   0  0  0  1  0  0  0  0  0  0  0  0
  1  2  1  0  0  0  0
  1  3  1  0  0  0  0
  1  5  1  0  0  0  0
  1 18  1  0  0  0  0
  3  4  1  0  0  0  0
  5  6  1  0  0  0  0
  5  7  1  0  0  0  0
  5  9  1  0  0  0  0
  7  8  1  0  0  0  0
  9 10  1  0  0  0  0
  9 17  1  0  0  0  0
  9 20  1  0  0  0  0
 11 12  1  0  0  0  0
 11 13  1  0  0  0  0
 11 17  1  0  0  0  0
 11 18  1  0  0  0  0
 13 14  1  0  0  0  0
 15 16  1  0  0  0  0
 15 18  1  0  0  0  0
 15 25  1  0  0  0  0
 18 19  1  0  0  0  0
 20 21  1  0  0  0  0
 20 22  1  0  0  0  0
 20 23  1  0  0  0  0
 23 24  1  0  0  0  0
 25 26  2  0  0  0  0
 25 27  1  0  0  0  0
 27 28  1  0  0  0  0
 27 29  1  0  0  0  0
 27 30  1  0  0  0  0
M  END
> <ConfClashScore>
0.0565218 

> <ConfOneFourInteractionScore>
-0.942232 

> <ConfScore>
6.37263 

> <ConfScorePBest>
0.00727047 

> <ConfTolerance>
0.619564 

$$$$
L09.****
  PyMOL2.4          3D                             0

 30 30  0  0  0  0  0  0  0  0999 V2000
   12.0318   -5.2680    0.1921 C   0  0  0  1  0  0  0  0  0  0  0  0
   11.9759   -5.8504    1.0879 H   0  0  0  1  0  0  0  0  0  0  0  0
   12.4618   -6.2543   -0.7497 O   0  0  0  1  0  0  0  0  0  0  0  0
   12.2021   -7.1258   -0.4420 H   0  0  0  1  0  0  0  0  0  0  0  0
   11.2739   -5.0181   -0.0200 C   0  0  0  1  0  0  0  0  0  0  0  0
   10.8526   -5.6392   -0.7826 H   0  0  0  1  0  0  0  0  0  0  0  0
   10.4870   -5.3583    1.1189 O   0  0  0  1  0  0  0  0  0  0  0  0
    9.5578   -5.3599    0.8775 H   0  0  0  1  0  0  0  0  0  0  0  0
   11.1279   -4.2188   -0.1633 C   0  0  0  1  0  0  0  0  0  0  0  0
   10.2777   -3.8940    0.3994 H   0  0  0  1  0  0  0  0  0  0  0  0
   12.4966   -3.9186    0.1171 C   0  0  0  1  0  0  0  0  0  0  0  0
   12.8809   -3.3176    0.9147 H   0  0  0  1  0  0  0  0  0  0  0  0
   13.3640   -3.5916   -0.9359 O   0  0  0  1  0  0  0  0  0  0  0  0
   14.0585   -3.0138   -0.6113 H   0  0  0  1  0  0  0  0  0  0  0  0
   13.7091   -5.1466   -0.6503 N   0  0  0  1  0  0  0  0  0  0  0  0
   13.5226   -5.1868   -1.6115 H   0  0  0  1  0  0  0  0  0  0  0  0
   11.7398   -3.6695   -0.0945 O   0  0  0  1  0  0  0  0  0  0  0  0
   12.6425   -4.7178    0.2604 C   0  0  0  1  0  0  0  0  0  0  0  0
   13.1266   -4.8320    1.2078 H   0  0  0  1  0  0  0  0  0  0  0  0
   10.6623   -3.9437   -1.5512 C   0  0  0  1  0  0  0  0  0  0  0  0
   10.5616   -2.8846   -1.6656 H   0  0  0  1  0  0  0  0  0  0  0  0
    9.7078   -4.4094   -1.6814 H   0  0  0  1  0  0  0  0  0  0  0  0
   11.5298   -4.4189   -2.5705 O   0  0  0  1  0  0  0  0  0  0  0  0
   11.3019   -5.3256   -2.7883 H   0  0  0  1  0  0  0  0  0  0  0  0
   14.9315   -5.4859   -0.2132 C   0  0  0  1  0  0  0  0  0  0  0  0
   15.3513   -5.2772    0.9243 O   0  0  0  1  0  0  0  0  0  0  0  0
   15.7861   -6.1693   -1.2628 C   0  0  0  1  0  0  0  0  0  0  0  0
   15.5221   -5.8024   -2.2327 H   0  0  0  1  0  0  0  0  0  0  0  0
   15.6208   -7.2258   -1.2244 H   0  0  0  1  0  0  0  0  0  0  0  0
   16.8184   -5.9622   -1.0722 H   0  0  0  1  0  0  0  0  0  0  0  0
  1  2  1  0  0  0  0
  1  3  1  0  0  0  0
  1  5  1  0  0  0  0
  1 18  1  0  0  0  0
  3  4  1  0  0  0  0
  5  6  1  0  0  0  0
  5  7  1  0  0  0  0
  5  9  1  0  0  0  0
  7  8  1  0  0  0  0
  9 10  1  0  0  0  0
  9 17  1  0  0  0  0
  9 20  1  0  0  0  0
 11 12  1  0  0  0  0
 11 13  1  0  0  0  0
 11 17  1  0  0  0  0
 11 18  1  0  0  0  0
 13 14  1  0  0  0  0
 15 16  1  0  0  0  0
 15 18  1  0  0  0  0
 15 25  1  0  0  0  0
 18 19  1  0  0  0  0
 20 21  1  0  0  0  0
 20 22  1  0  0  0  0
 20 23  1  0  0  0  0
 23 24  1  0  0  0  0
 25 26  2  0  0  0  0
 25 27  1  0  0  0  0
 27 28  1  0  0  0  0
 27 29  1  0  0  0  0
 27 30  1  0  0  0  0
M  END
> <ConfClashScore>
0.0588749 

> <ConfOneFourInteractionScore>
-0.968695 

> <ConfScore>
6.38992 

> <ConfScorePBest>
0.00716747 

> <ConfTolerance>
0.529249 

$$$$
L09.****
  PyMOL2.4          3D                             0

 30 30  0  0  0  0  0  0  0  0999 V2000
   12.0447   -5.2153    0.3942 C   0  0  0  1  0  0  0  0  0  0  0  0
   12.1415   -5.6930    1.3468 H   0  0  0  1  0  0  0  0  0  0  0  0
   12.1021   -6.3270   -0.5033 O   0  0  0  1  0  0  0  0  0  0  0  0
   12.0563   -7.1452   -0.0033 H   0  0  0  1  0  0  0  0  0  0  0  0
   11.2820   -4.9178    0.2866 C   0  0  0  1  0  0  0  0  0  0  0  0
   10.6519   -5.1352    1.1236 H   0  0  0  1  0  0  0  0  0  0  0  0
   10.7662   -5.7885   -0.7172 O   0  0  0  1  0  0  0  0  0  0  0  0
    9.8286   -5.6201   -0.8366 H   0  0  0  1  0  0  0  0  0  0  0  0
   11.1746   -4.1456    0.0169 C   0  0  0  1  0  0  0  0  0  0  0  0
   10.4980   -4.1353   -0.8120 H   0  0  0  1  0  0  0  0  0  0  0  0
   12.5914   -3.9676   -0.0378 C   0  0  0  1  0  0  0  0  0  0  0  0
   13.1988   -3.2797    0.5125 H   0  0  0  1  0  0  0  0  0  0  0  0
   13.2251   -3.9807   -1.2977 O   0  0  0  1  0  0  0  0  0  0  0  0
   13.5948   -3.1136   -1.4796 H   0  0  0  1  0  0  0  0  0  0  0  0
   13.4580   -4.6591    1.4709 N   0  0  0  1  0  0  0  0  0  0  0  0
   13.4136   -3.8354    1.9999 H   0  0  0  1  0  0  0  0  0  0  0  0
   11.8298   -3.6708   -0.1451 O   0  0  0  1  0  0  0  0  0  0  0  0
   12.6989   -4.7398    0.2319 C   0  0  0  1  0  0  0  0  0  0  0  0
   13.3863   -5.2603   -0.4016 H   0  0  0  1  0  0  0  0  0  0  0  0
   10.4000   -3.3434    1.0260 C   0  0  0  1  0  0  0  0  0  0  0  0
   10.3361   -2.3267    0.6988 H   0  0  0  1  0  0  0  0  0  0  0  0
   10.8994   -3.3837    1.9715 H   0  0  0  1  0  0  0  0  0  0  0  0
    9.0914   -3.8792    1.1603 O   0  0  0  1  0  0  0  0  0  0  0  0
    8.8552   -4.3526    0.3592 H   0  0  0  1  0  0  0  0  0  0  0  0
   14.2207   -5.6789    1.9165 C   0  0  0  1  0  0  0  0  0  0  0  0
   14.9480   -5.5458    2.8971 O   0  0  0  1  0  0  0  0  0  0  0  0
   14.1544   -6.9975    1.1707 C   0  0  0  1  0  0  0  0  0  0  0  0
   14.3639   -6.8326    0.1344 H   0  0  0  1  0  0  0  0  0  0  0  0
   13.1754   -7.4166    1.2741 H   0  0  0  1  0  0  0  0  0  0  0  0
   14.8772   -7.6736    1.5772 H   0  0  0  1  0  0  0  0  0  0  0  0
  1  2  1  0  0  0  0
  1  3  1  0  0  0  0
  1  5  1  0  0  0  0
  1 18  1  0  0  0  0
  3  4  1  0  0  0  0
  5  6  1  0  0  0  0
  5  7  1  0  0  0  0
  5  9  1  0  0  0  0
  7  8  1  0  0  0  0
  9 10  1  0  0  0  0
  9 17  1  0  0  0  0
  9 20  1  0  0  0  0
 11 12  1  0  0  0  0
 11 13  1  0  0  0  0
 11 17  1  0  0  0  0
 11 18  1  0  0  0  0
 13 14  1  0  0  0  0
 15 16  1  0  0  0  0
 15 18  1  0  0  0  0
 15 25  1  0  0  0  0
 18 19  1  0  0  0  0
 20 21  1  0  0  0  0
 20 22  1  0  0  0  0
 20 23  1  0  0  0  0
 23 24  1  0  0  0  0
 25 26  2  0  0  0  0
 25 27  1  0  0  0  0
 27 28  1  0  0  0  0
 27 29  1  0  0  0  0
 27 30  1  0  0  0  0
M  END
> <ConfClashScore>
0.0536171 

> <ConfOneFourInteractionScore>
-0.95717 

> <ConfScore>
6.41172 

> <ConfScorePBest>
0.00706447 

> <ConfTolerance>
0.916409 

$$$$
L09.****
  PyMOL2.4          3D                             0

 30 30  0  0  0  0  0  0  0  0999 V2000
   12.0901   -5.1707    0.3453 C   0  0  0  1  0  0  0  0  0  0  0  0
   12.1981   -5.8149    1.1927 H   0  0  0  1  0  0  0  0  0  0  0  0
   12.1399   -6.0996   -0.7406 O   0  0  0  1  0  0  0  0  0  0  0  0
   11.8629   -6.9662   -0.4340 H   0  0  0  1  0  0  0  0  0  0  0  0
   11.3428   -4.8197    0.3341 C   0  0  0  1  0  0  0  0  0  0  0  0
   10.7934   -5.1095    1.2053 H   0  0  0  1  0  0  0  0  0  0  0  0
   10.5854   -5.4496   -0.6962 O   0  0  0  1  0  0  0  0  0  0  0  0
    9.9316   -6.0322   -0.3028 H   0  0  0  1  0  0  0  0  0  0  0  0
   11.2706   -4.0064    0.2159 C   0  0  0  1  0  0  0  0  0  0  0  0
   10.6662   -3.5839    0.9912 H   0  0  0  1  0  0  0  0  0  0  0  0
   12.6919   -3.8942    0.1201 C   0  0  0  1  0  0  0  0  0  0  0  0
   13.3845   -3.3404    0.7189 H   0  0  0  1  0  0  0  0  0  0  0  0
   13.1648   -3.6761   -1.1790 O   0  0  0  1  0  0  0  0  0  0  0  0
   12.6546   -4.2029   -1.7984 H   0  0  0  1  0  0  0  0  0  0  0  0
   13.6406   -4.9270    1.3933 N   0  0  0  1  0  0  0  0  0  0  0  0
   13.6974   -4.2327    2.0826 H   0  0  0  1  0  0  0  0  0  0  0  0
   11.9457   -3.5441    0.1089 O   0  0  0  1  0  0  0  0  0  0  0  0
   12.7641   -4.7075    0.2382 C   0  0  0  1  0  0  0  0  0  0  0  0
   13.3598   -5.1266   -0.5456 H   0  0  0  1  0  0  0  0  0  0  0  0
   10.4417   -3.6665   -0.9921 C   0  0  0  1  0  0  0  0  0  0  0  0
    9.5694   -4.2862   -0.9953 H   0  0  0  1  0  0  0  0  0  0  0  0
   11.0204   -3.8599   -1.8711 H   0  0  0  1  0  0  0  0  0  0  0  0
   10.0342   -2.3059   -1.0050 O   0  0  0  1  0  0  0  0  0  0  0  0
   10.6967   -1.7688   -0.5643 H   0  0  0  1  0  0  0  0  0  0  0  0
   14.3644   -6.0406    1.5386 C   0  0  0  1  0  0  0  0  0  0  0  0
   14.2877   -6.9933    0.7674 O   0  0  0  1  0  0  0  0  0  0  0  0
   15.3031   -6.0654    2.7291 C   0  0  0  1  0  0  0  0  0  0  0  0
   16.2524   -6.4561    2.4273 H   0  0  0  1  0  0  0  0  0  0  0  0
   14.8897   -6.6864    3.4961 H   0  0  0  1  0  0  0  0  0  0  0  0
   15.4298   -5.0712    3.1039 H   0  0  0  1  0  0  0  0  0  0  0  0
  1  2  1  0  0  0  0
  1  3  1  0  0  0  0
  1  5  1  0  0  0  0
  1 18  1  0  0  0  0
  3  4  1  0  0  0  0
  5  6  1  0  0  0  0
  5  7  1  0  0  0  0
  5  9  1  0  0  0  0
  7  8  1  0  0  0  0
  9 10  1  0  0  0  0
  9 17  1  0  0  0  0
  9 20  1  0  0  0  0
 11 12  1  0  0  0  0
 11 13  1  0  0  0  0
 11 17  1  0  0  0  0
 11 18  1  0  0  0  0
 13 14  1  0  0  0  0
 15 16  1  0  0  0  0
 15 18  1  0  0  0  0
 15 25  1  0  0  0  0
 18 19  1  0  0  0  0
 20 21  1  0  0  0  0
 20 22  1  0  0  0  0
 20 23  1  0  0  0  0
 23 24  1  0  0  0  0
 25 26  2  0  0  0  0
 25 27  1  0  0  0  0
 27 28  1  0  0  0  0
 27 29  1  0  0  0  0
 27 30  1  0  0  0  0
M  END
> <ConfClashScore>
0.0586632 

> <ConfOneFourInteractionScore>
-0.95717 

> <ConfScore>
6.42021 

> <ConfScorePBest>
0.00696147 

> <ConfTolerance>
0.804537 

$$$$
L09.****
  PyMOL2.4          3D                             0

 30 30  0  0  0  0  0  0  0  0999 V2000
   11.9361   -5.3133    0.1254 C   0  0  0  1  0  0  0  0  0  0  0  0
   11.7539   -6.0033    0.9226 H   0  0  0  1  0  0  0  0  0  0  0  0
   12.2925   -6.1976   -0.9403 O   0  0  0  1  0  0  0  0  0  0  0  0
   12.2350   -7.1062   -0.6356 H   0  0  0  1  0  0  0  0  0  0  0  0
   11.2264   -4.9732   -0.1243 C   0  0  0  1  0  0  0  0  0  0  0  0
   10.8790   -5.4491   -1.0175 H   0  0  0  1  0  0  0  0  0  0  0  0
   10.1937   -5.3072    0.7997 O   0  0  0  1  0  0  0  0  0  0  0  0
   10.5418   -5.2771    1.6939 H   0  0  0  1  0  0  0  0  0  0  0  0
   11.1630   -4.1534   -0.1920 C   0  0  0  1  0  0  0  0  0  0  0  0
   10.2922   -3.8083    0.3254 H   0  0  0  1  0  0  0  0  0  0  0  0
   12.5181   -4.0130    0.2394 C   0  0  0  1  0  0  0  0  0  0  0  0
   12.8919   -3.5245    1.1149 H   0  0  0  1  0  0  0  0  0  0  0  0
   13.5024   -3.6971   -0.7199 O   0  0  0  1  0  0  0  0  0  0  0  0
   13.5581   -2.7439   -0.8199 H   0  0  0  1  0  0  0  0  0  0  0  0
   13.7322   -5.2818   -0.5780 N   0  0  0  1  0  0  0  0  0  0  0  0
   13.7216   -5.0386   -1.5272 H   0  0  0  1  0  0  0  0  0  0  0  0
   11.8093   -3.6738   -0.0099 O   0  0  0  1  0  0  0  0  0  0  0  0
   12.5815   -4.8328    0.3070 C   0  0  0  1  0  0  0  0  0  0  0  0
   12.9642   -5.0888    1.2729 H   0  0  0  1  0  0  0  0  0  0  0  0
   10.8577   -3.6936   -1.5888 C   0  0  0  1  0  0  0  0  0  0  0  0
    9.9740   -4.1784   -1.9480 H   0  0  0  1  0  0  0  0  0  0  0  0
   11.6785   -3.9219   -2.2361 H   0  0  0  1  0  0  0  0  0  0  0  0
   10.6544   -2.2887   -1.5406 O   0  0  0  1  0  0  0  0  0  0  0  0
   11.4324   -1.8405   -1.8801 H   0  0  0  1  0  0  0  0  0  0  0  0
   14.7666   -6.0026   -0.1030 C   0  0  0  1  0  0  0  0  0  0  0  0
   14.9497   -6.2660    1.0848 O   0  0  0  1  0  0  0  0  0  0  0  0
   15.7211   -6.4814   -1.1795 C   0  0  0  1  0  0  0  0  0  0  0  0
   15.4328   -7.4597   -1.5031 H   0  0  0  1  0  0  0  0  0  0  0  0
   16.7152   -6.5149   -0.7852 H   0  0  0  1  0  0  0  0  0  0  0  0
   15.6888   -5.8074   -2.0099 H   0  0  0  1  0  0  0  0  0  0  0  0
  1  2  1  0  0  0  0
  1  3  1  0  0  0  0
  1  5  1  0  0  0  0
  1 18  1  0  0  0  0
  3  4  1  0  0  0  0
  5  6  1  0  0  0  0
  5  7  1  0  0  0  0
  5  9  1  0  0  0  0
  7  8  1  0  0  0  0
  9 10  1  0  0  0  0
  9 17  1  0  0  0  0
  9 20  1  0  0  0  0
 11 12  1  0  0  0  0
 11 13  1  0  0  0  0
 11 17  1  0  0  0  0
 11 18  1  0  0  0  0
 13 14  1  0  0  0  0
 15 16  1  0  0  0  0
 15 18  1  0  0  0  0
 15 25  1  0  0  0  0
 18 19  1  0  0  0  0
 20 21  1  0  0  0  0
 20 22  1  0  0  0  0
 20 23  1  0  0  0  0
 23 24  1  0  0  0  0
 25 26  2  0  0  0  0
 25 27  1  0  0  0  0
 27 28  1  0  0  0  0
 27 29  1  0  0  0  0
 27 30  1  0  0  0  0
M  END
> <ConfClashScore>
0.0599953 

> <ConfOneFourInteractionScore>
-0.968695 

> <ConfScore>
6.47577 

> <ConfScorePBest>
0.00685847 

> <ConfTolerance>
0.707516 

$$$$
L09.****
  PyMOL2.4          3D                             0

 30 30  0  0  0  0  0  0  0  0999 V2000
   12.0794   -5.2980    0.2068 C   0  0  0  1  0  0  0  0  0  0  0  0
   12.2681   -6.0929   -0.4842 H   0  0  0  1  0  0  0  0  0  0  0  0
   11.9963   -6.0089    1.4447 O   0  0  0  1  0  0  0  0  0  0  0  0
   11.7826   -6.9288    1.2722 H   0  0  0  1  0  0  0  0  0  0  0  0
   11.3277   -4.9808    0.0793 C   0  0  0  1  0  0  0  0  0  0  0  0
   10.6166   -5.3866    0.7682 H   0  0  0  1  0  0  0  0  0  0  0  0
   10.8631   -5.4965   -1.1657 O   0  0  0  1  0  0  0  0  0  0  0  0
    9.9053   -5.4412   -1.1981 H   0  0  0  1  0  0  0  0  0  0  0  0
   11.2321   -4.1653   -0.0008 C   0  0  0  1  0  0  0  0  0  0  0  0
   10.7238   -3.9714   -0.9222 H   0  0  0  1  0  0  0  0  0  0  0  0
   12.6387   -3.9832    0.1739 C   0  0  0  1  0  0  0  0  0  0  0  0
   13.1723   -3.4458    0.9297 H   0  0  0  1  0  0  0  0  0  0  0  0
   13.4025   -3.7229   -0.9828 O   0  0  0  1  0  0  0  0  0  0  0  0
   13.1271   -2.8875   -1.3674 H   0  0  0  1  0  0  0  0  0  0  0  0
   13.5577   -5.2142   -0.9235 N   0  0  0  1  0  0  0  0  0  0  0  0
   13.2742   -4.9380   -1.8200 H   0  0  0  1  0  0  0  0  0  0  0  0
   11.8881   -3.6669    0.0466 O   0  0  0  1  0  0  0  0  0  0  0  0
   12.7343   -4.7988    0.2539 C   0  0  0  1  0  0  0  0  0  0  0  0
   13.3749   -5.0508    1.0731 H   0  0  0  1  0  0  0  0  0  0  0  0
   10.2384   -3.5974    0.9713 C   0  0  0  1  0  0  0  0  0  0  0  0
    9.3217   -4.1421    0.8827 H   0  0  0  1  0  0  0  0  0  0  0  0
   10.0682   -2.5696    0.7272 H   0  0  0  1  0  0  0  0  0  0  0  0
   10.6883   -3.6780    2.3161 O   0  0  0  1  0  0  0  0  0  0  0  0
   10.0048   -3.3463    2.9031 H   0  0  0  1  0  0  0  0  0  0  0  0
   14.6662   -5.9489   -0.7955 C   0  0  0  1  0  0  0  0  0  0  0  0
   15.0850   -6.3443    0.2892 O   0  0  0  1  0  0  0  0  0  0  0  0
   15.3933   -6.2745   -2.0857 C   0  0  0  1  0  0  0  0  0  0  0  0
   16.2452   -6.8853   -1.8713 H   0  0  0  1  0  0  0  0  0  0  0  0
   15.7140   -5.3668   -2.5529 H   0  0  0  1  0  0  0  0  0  0  0  0
   14.7337   -6.8010   -2.7434 H   0  0  0  1  0  0  0  0  0  0  0  0
  1  2  1  0  0  0  0
  1  3  1  0  0  0  0
  1  5  1  0  0  0  0
  1 18  1  0  0  0  0
  3  4  1  0  0  0  0
  5  6  1  0  0  0  0
  5  7  1  0  0  0  0
  5  9  1  0  0  0  0
  7  8  1  0  0  0  0
  9 10  1  0  0  0  0
  9 17  1  0  0  0  0
  9 20  1  0  0  0  0
 11 12  1  0  0  0  0
 11 13  1  0  0  0  0
 11 17  1  0  0  0  0
 11 18  1  0  0  0  0
 13 14  1  0  0  0  0
 15 16  1  0  0  0  0
 15 18  1  0  0  0  0
 15 25  1  0  0  0  0
 18 19  1  0  0  0  0
 20 21  1  0  0  0  0
 20 22  1  0  0  0  0
 20 23  1  0  0  0  0
 23 24  1  0  0  0  0
 25 26  2  0  0  0  0
 25 27  1  0  0  0  0
 27 28  1  0  0  0  0
 27 29  1  0  0  0  0
 27 30  1  0  0  0  0
M  END
> <ConfClashScore>
0.0601671 

> <ConfOneFourInteractionScore>
-0.968695 

> <ConfScore>
6.50248 

> <ConfScorePBest>
0.00675547 

> <ConfTolerance>
0.657662 

$$$$
L09.****
  PyMOL2.4          3D                             0

 30 30  0  0  0  0  0  0  0  0999 V2000
   12.0319   -5.2763   -0.0596 C   0  0  0  1  0  0  0  0  0  0  0  0
   12.3322   -6.0020   -0.7864 H   0  0  0  1  0  0  0  0  0  0  0  0
   11.7702   -6.0893    1.0750 O   0  0  0  1  0  0  0  0  0  0  0  0
   11.8426   -7.0146    0.8298 H   0  0  0  1  0  0  0  0  0  0  0  0
   11.3090   -4.9357   -0.2674 C   0  0  0  1  0  0  0  0  0  0  0  0
   10.9321   -5.3563   -1.1762 H   0  0  0  1  0  0  0  0  0  0  0  0
   10.4021   -5.4581    0.7004 O   0  0  0  1  0  0  0  0  0  0  0  0
    9.9175   -6.1947    0.3206 H   0  0  0  1  0  0  0  0  0  0  0  0
   11.2224   -4.1153   -0.2612 C   0  0  0  1  0  0  0  0  0  0  0  0
   10.8882   -3.8099   -1.2307 H   0  0  0  1  0  0  0  0  0  0  0  0
   12.5807   -3.9752    0.1602 C   0  0  0  1  0  0  0  0  0  0  0  0
   12.9544   -3.5567    1.0713 H   0  0  0  1  0  0  0  0  0  0  0  0
   13.5021   -3.5060   -0.7808 O   0  0  0  1  0  0  0  0  0  0  0  0
   13.7993   -2.6287   -0.5285 H   0  0  0  1  0  0  0  0  0  0  0  0
   13.7946   -5.0717   -0.6785 N   0  0  0  1  0  0  0  0  0  0  0  0
   13.6582   -5.1620   -1.6447 H   0  0  0  1  0  0  0  0  0  0  0  0
   11.8588   -3.6355   -0.0472 O   0  0  0  1  0  0  0  0  0  0  0  0
   12.6672   -4.7956    0.1540 C   0  0  0  1  0  0  0  0  0  0  0  0
   13.0409   -5.1139    1.1048 H   0  0  0  1  0  0  0  0  0  0  0  0
   10.0827   -3.6025    0.5754 C   0  0  0  1  0  0  0  0  0  0  0  0
   10.3836   -3.5646    1.6015 H   0  0  0  1  0  0  0  0  0  0  0  0
    9.2434   -4.2583    0.4733 H   0  0  0  1  0  0  0  0  0  0  0  0
    9.7193   -2.2997    0.1416 O   0  0  0  1  0  0  0  0  0  0  0  0
    8.8809   -2.3393   -0.3243 H   0  0  0  1  0  0  0  0  0  0  0  0
   15.0726   -5.2161   -0.1681 C   0  0  0  1  0  0  0  0  0  0  0  0
   15.3572   -4.9939    1.0080 O   0  0  0  1  0  0  0  0  0  0  0  0
   16.1791   -5.5775   -1.1671 C   0  0  0  1  0  0  0  0  0  0  0  0
   16.6407   -6.4965   -0.8717 H   0  0  0  1  0  0  0  0  0  0  0  0
   16.9129   -4.7990   -1.1833 H   0  0  0  1  0  0  0  0  0  0  0  0
   15.7553   -5.6893   -2.1433 H   0  0  0  1  0  0  0  0  0  0  0  0
  1  2  1  0  0  0  0
  1  3  1  0  0  0  0
  1  5  1  0  0  0  0
  1 18  1  0  0  0  0
  3  4  1  0  0  0  0
  5  6  1  0  0  0  0
  5  7  1  0  0  0  0
  5  9  1  0  0  0  0
  7  8  1  0  0  0  0
  9 10  1  0  0  0  0
  9 17  1  0  0  0  0
  9 20  1  0  0  0  0
 11 12  1  0  0  0  0
 11 13  1  0  0  0  0
 11 17  1  0  0  0  0
 11 18  1  0  0  0  0
 13 14  1  0  0  0  0
 15 16  1  0  0  0  0
 15 18  1  0  0  0  0
 15 25  1  0  0  0  0
 18 19  1  0  0  0  0
 20 21  1  0  0  0  0
 20 22  1  0  0  0  0
 20 23  1  0  0  0  0
 23 24  1  0  0  0  0
 25 26  2  0  0  0  0
 25 27  1  0  0  0  0
 27 28  1  0  0  0  0
 27 29  1  0  0  0  0
 27 30  1  0  0  0  0
M  END
> <ConfClashScore>
0.0601601 

> <ConfOneFourInteractionScore>
-0.942232 

> <ConfScore>
6.53902 

> <ConfScorePBest>
0.00665247 

> <ConfTolerance>
0.591515 

$$$$
L09.****
  PyMOL2.4          3D                             0

 30 30  0  0  0  0  0  0  0  0999 V2000
   11.9991   -5.2508   -0.1561 C   0  0  0  1  0  0  0  0  0  0  0  0
   11.9662   -6.1435   -0.7451 H   0  0  0  1  0  0  0  0  0  0  0  0
   12.2337   -5.7628    1.1466 O   0  0  0  1  0  0  0  0  0  0  0  0
   12.3010   -6.7196    1.1076 H   0  0  0  1  0  0  0  0  0  0  0  0
   11.2626   -4.8778   -0.1403 C   0  0  0  1  0  0  0  0  0  0  0  0
   10.5459   -5.4213   -0.7199 H   0  0  0  1  0  0  0  0  0  0  0  0
   10.7439   -5.0202    1.1797 O   0  0  0  1  0  0  0  0  0  0  0  0
   10.2335   -5.8312    1.2377 H   0  0  0  1  0  0  0  0  0  0  0  0
   11.2072   -4.0677   -0.2863 C   0  0  0  1  0  0  0  0  0  0  0  0
   10.7010   -3.6104    0.5380 H   0  0  0  1  0  0  0  0  0  0  0  0
   12.6236   -4.0028   -0.4639 C   0  0  0  1  0  0  0  0  0  0  0  0
   13.1892   -3.7194   -1.3269 H   0  0  0  1  0  0  0  0  0  0  0  0
   13.3826   -3.4617    0.5870 O   0  0  0  1  0  0  0  0  0  0  0  0
   12.9688   -3.6783    1.4257 H   0  0  0  1  0  0  0  0  0  0  0  0
   13.3210   -5.4328   -1.4817 N   0  0  0  1  0  0  0  0  0  0  0  0
   13.9822   -6.1363   -1.3133 H   0  0  0  1  0  0  0  0  0  0  0  0
   11.8882   -3.6307   -0.4481 O   0  0  0  1  0  0  0  0  0  0  0  0
   12.6790   -4.8129   -0.3179 C   0  0  0  1  0  0  0  0  0  0  0  0
   13.4133   -4.9936    0.4391 H   0  0  0  1  0  0  0  0  0  0  0  0
   10.2693   -3.7005   -1.4001 C   0  0  0  1  0  0  0  0  0  0  0  0
   10.6595   -4.0635   -2.3279 H   0  0  0  1  0  0  0  0  0  0  0  0
   10.1712   -2.6360   -1.4460 H   0  0  0  1  0  0  0  0  0  0  0  0
    8.9952   -4.2822   -1.1639 O   0  0  0  1  0  0  0  0  0  0  0  0
    8.6200   -3.9164   -0.3596 H   0  0  0  1  0  0  0  0  0  0  0  0
   13.0728   -5.1115   -2.7517 C   0  0  0  1  0  0  0  0  0  0  0  0
   12.1855   -4.3294   -3.0825 O   0  0  0  1  0  0  0  0  0  0  0  0
   13.9617   -5.7758   -3.7851 C   0  0  0  1  0  0  0  0  0  0  0  0
   13.9124   -6.8383   -3.6685 H   0  0  0  1  0  0  0  0  0  0  0  0
   14.9715   -5.4489   -3.6497 H   0  0  0  1  0  0  0  0  0  0  0  0
   13.6284   -5.5090   -4.7663 H   0  0  0  1  0  0  0  0  0  0  0  0
  1  2  1  0  0  0  0
  1  3  1  0  0  0  0
  1  5  1  0  0  0  0
  1 18  1  0  0  0  0
  3  4  1  0  0  0  0
  5  6  1  0  0  0  0
  5  7  1  0  0  0  0
  5  9  1  0  0  0  0
  7  8  1  0  0  0  0
  9 10  1  0  0  0  0
  9 17  1  0  0  0  0
  9 20  1  0  0  0  0
 11 12  1  0  0  0  0
 11 13  1  0  0  0  0
 11 17  1  0  0  0  0
 11 18  1  0  0  0  0
 13 14  1  0  0  0  0
 15 16  1  0  0  0  0
 15 18  1  0  0  0  0
 15 25  1  0  0  0  0
 18 19  1  0  0  0  0
 20 21  1  0  0  0  0
 20 22  1  0  0  0  0
 20 23  1  0  0  0  0
 23 24  1  0  0  0  0
 25 26  2  0  0  0  0
 25 27  1  0  0  0  0
 27 28  1  0  0  0  0
 27 29  1  0  0  0  0
 27 30  1  0  0  0  0
M  END
> <ConfClashScore>
0.05877 

> <ConfOneFourInteractionScore>
-0.955847 

> <ConfScore>
6.55196 

> <ConfScorePBest>
0.00654947 

> <ConfTolerance>
0.828011 

$$$$
L09.****
  PyMOL2.4          3D                             0

 30 30  0  0  0  0  0  0  0  0999 V2000
   12.0660   -5.1923    0.2529 C   0  0  0  1  0  0  0  0  0  0  0  0
   12.4118   -5.5205    1.2108 H   0  0  0  1  0  0  0  0  0  0  0  0
   11.7055   -6.4239   -0.3772 O   0  0  0  1  0  0  0  0  0  0  0  0
   12.2055   -7.1432    0.0157 H   0  0  0  1  0  0  0  0  0  0  0  0
   11.3649   -4.7606    0.3158 C   0  0  0  1  0  0  0  0  0  0  0  0
   11.0880   -4.6471    1.3431 H   0  0  0  1  0  0  0  0  0  0  0  0
   10.3718   -5.6762   -0.1505 O   0  0  0  1  0  0  0  0  0  0  0  0
    9.6982   -5.7893    0.5242 H   0  0  0  1  0  0  0  0  0  0  0  0
   11.2842   -4.0439   -0.0848 C   0  0  0  1  0  0  0  0  0  0  0  0
   11.0196   -3.2887    0.6254 H   0  0  0  1  0  0  0  0  0  0  0  0
   12.6047   -4.1896   -0.6114 C   0  0  0  1  0  0  0  0  0  0  0  0
   12.9655   -4.2401   -1.6175 H   0  0  0  1  0  0  0  0  0  0  0  0
   13.5382   -3.3554    0.0172 O   0  0  0  1  0  0  0  0  0  0  0  0
   13.0836   -2.7640    0.6215 H   0  0  0  1  0  0  0  0  0  0  0  0
   13.8041   -4.7984    0.7189 N   0  0  0  1  0  0  0  0  0  0  0  0
   13.6172   -4.6319    1.6664 H   0  0  0  1  0  0  0  0  0  0  0  0
   11.9046   -3.7589   -0.5484 O   0  0  0  1  0  0  0  0  0  0  0  0
   12.6854   -4.9063   -0.2108 C   0  0  0  1  0  0  0  0  0  0  0  0
   13.0362   -5.6678   -0.8756 H   0  0  0  1  0  0  0  0  0  0  0  0
   10.0912   -3.9719   -0.9943 C   0  0  0  1  0  0  0  0  0  0  0  0
    9.1913   -4.0810   -0.4257 H   0  0  0  1  0  0  0  0  0  0  0  0
   10.1452   -4.7473   -1.7297 H   0  0  0  1  0  0  0  0  0  0  0  0
   10.1136   -2.6971   -1.6292 O   0  0  0  1  0  0  0  0  0  0  0  0
   10.8807   -2.6385   -2.2033 H   0  0  0  1  0  0  0  0  0  0  0  0
   15.1227   -4.9231    0.3087 C   0  0  0  1  0  0  0  0  0  0  0  0
   15.3472   -5.1745   -0.8612 O   0  0  0  1  0  0  0  0  0  0  0  0
   16.2217   -4.7443    1.3182 C   0  0  0  1  0  0  0  0  0  0  0  0
   17.0574   -5.3557    1.0485 H   0  0  0  1  0  0  0  0  0  0  0  0
   15.8671   -5.0321    2.2859 H   0  0  0  1  0  0  0  0  0  0  0  0
   16.5230   -3.7178    1.3391 H   0  0  0  1  0  0  0  0  0  0  0  0
  1  2  1  0  0  0  0
  1  3  1  0  0  0  0
  1  5  1  0  0  0  0
  1 18  1  0  0  0  0
  3  4  1  0  0  0  0
  5  6  1  0  0  0  0
  5  7  1  0  0  0  0
  5  9  1  0  0  0  0
  7  8  1  0  0  0  0
  9 10  1  0  0  0  0
  9 17  1  0  0  0  0
  9 20  1  0  0  0  0
 11 12  1  0  0  0  0
 11 13  1  0  0  0  0
 11 17  1  0  0  0  0
 11 18  1  0  0  0  0
 13 14  1  0  0  0  0
 15 16  1  0  0  0  0
 15 18  1  0  0  0  0
 15 25  1  0  0  0  0
 18 19  1  0  0  0  0
 20 21  1  0  0  0  0
 20 22  1  0  0  0  0
 20 23  1  0  0  0  0
 23 24  1  0  0  0  0
 25 26  2  0  0  0  0
 25 27  1  0  0  0  0
 27 28  1  0  0  0  0
 27 29  1  0  0  0  0
 27 30  1  0  0  0  0
M  END
> <ConfClashScore>
0.0603676 

> <ConfOneFourInteractionScore>
-0.968695 

> <ConfScore>
6.56412 

> <ConfScorePBest>
0.00644647 

> <ConfTolerance>
0.970775 

$$$$
L09.****
  PyMOL2.4          3D                             0

 30 30  0  0  0  0  0  0  0  0999 V2000
   12.0197   -5.2123    0.0723 C   0  0  0  1  0  0  0  0  0  0  0  0
   11.8399   -6.1881   -0.3281 H   0  0  0  1  0  0  0  0  0  0  0  0
   12.5263   -5.5067    1.3557 O   0  0  0  1  0  0  0  0  0  0  0  0
   12.2930   -6.4070    1.5935 H   0  0  0  1  0  0  0  0  0  0  0  0
   11.3121   -4.8006    0.1802 C   0  0  0  1  0  0  0  0  0  0  0  0
   10.9708   -4.8847    1.1908 H   0  0  0  1  0  0  0  0  0  0  0  0
   10.3526   -5.5868   -0.5219 O   0  0  0  1  0  0  0  0  0  0  0  0
   10.0118   -6.2708    0.0592 H   0  0  0  1  0  0  0  0  0  0  0  0
   11.2402   -4.0252   -0.0922 C   0  0  0  1  0  0  0  0  0  0  0  0
   10.8620   -3.3933    0.6841 H   0  0  0  1  0  0  0  0  0  0  0  0
   12.5824   -4.0722   -0.5803 C   0  0  0  1  0  0  0  0  0  0  0  0
   12.9574   -3.9642   -1.5766 H   0  0  0  1  0  0  0  0  0  0  0  0
   13.4761   -3.3167    0.1671 O   0  0  0  1  0  0  0  0  0  0  0  0
   13.3234   -3.4721    1.1021 H   0  0  0  1  0  0  0  0  0  0  0  0
   12.9194   -5.6659   -1.4818 N   0  0  0  1  0  0  0  0  0  0  0  0
   12.4791   -5.4373   -2.3270 H   0  0  0  1  0  0  0  0  0  0  0  0
   11.8759   -3.6615   -0.4724 O   0  0  0  1  0  0  0  0  0  0  0  0
   12.6544   -4.8476   -0.3080 C   0  0  0  1  0  0  0  0  0  0  0  0
   13.5577   -4.9731    0.2516 H   0  0  0  1  0  0  0  0  0  0  0  0
   10.1538   -3.8892   -1.1203 C   0  0  0  1  0  0  0  0  0  0  0  0
   10.1114   -2.8809   -1.4757 H   0  0  0  1  0  0  0  0  0  0  0  0
    9.2104   -4.1571   -0.6923 H   0  0  0  1  0  0  0  0  0  0  0  0
   10.4675   -4.7680   -2.1911 O   0  0  0  1  0  0  0  0  0  0  0  0
    9.7021   -5.3101   -2.3955 H   0  0  0  1  0  0  0  0  0  0  0  0
   13.7501   -6.7284   -1.4471 C   0  0  0  1  0  0  0  0  0  0  0  0
   14.3868   -7.0043   -0.4312 O   0  0  0  1  0  0  0  0  0  0  0  0
   13.8772   -7.5752   -2.6985 C   0  0  0  1  0  0  0  0  0  0  0  0
   13.7388   -8.6061   -2.4478 H   0  0  0  1  0  0  0  0  0  0  0  0
   14.8497   -7.4392   -3.1236 H   0  0  0  1  0  0  0  0  0  0  0  0
   13.1328   -7.2777   -3.4072 H   0  0  0  1  0  0  0  0  0  0  0  0
  1  2  1  0  0  0  0
  1  3  1  0  0  0  0
  1  5  1  0  0  0  0
  1 18  1  0  0  0  0
  3  4  1  0  0  0  0
  5  6  1  0  0  0  0
  5  7  1  0  0  0  0
  5  9  1  0  0  0  0
  7  8  1  0  0  0  0
  9 10  1  0  0  0  0
  9 17  1  0  0  0  0
  9 20  1  0  0  0  0
 11 12  1  0  0  0  0
 11 13  1  0  0  0  0
 11 17  1  0  0  0  0
 11 18  1  0  0  0  0
 13 14  1  0  0  0  0
 15 16  1  0  0  0  0
 15 18  1  0  0  0  0
 15 25  1  0  0  0  0
 18 19  1  0  0  0  0
 20 21  1  0  0  0  0
 20 22  1  0  0  0  0
 20 23  1  0  0  0  0
 23 24  1  0  0  0  0
 25 26  2  0  0  0  0
 25 27  1  0  0  0  0
 27 28  1  0  0  0  0
 27 29  1  0  0  0  0
 27 30  1  0  0  0  0
M  END
> <ConfClashScore>
0.0609685 

> <ConfOneFourInteractionScore>
-0.968695 

> <ConfScore>
6.58584 

> <ConfScorePBest>
0.00634346 

> <ConfTolerance>
0.679947 

$$$$
L09.****
  PyMOL2.4          3D                             0

 30 30  0  0  0  0  0  0  0  0999 V2000
   11.9233   -5.2106    0.1554 C   0  0  0  1  0  0  0  0  0  0  0  0
   11.8626   -5.8362    1.0213 H   0  0  0  1  0  0  0  0  0  0  0  0
   12.1925   -6.1546   -0.8844 O   0  0  0  1  0  0  0  0  0  0  0  0
   12.6891   -6.8937   -0.5256 H   0  0  0  1  0  0  0  0  0  0  0  0
   11.1849   -4.9052   -0.0524 C   0  0  0  1  0  0  0  0  0  0  0  0
   10.7559   -5.4956   -0.8349 H   0  0  0  1  0  0  0  0  0  0  0  0
   10.3049   -5.1950    1.0309 O   0  0  0  1  0  0  0  0  0  0  0  0
   10.1890   -6.1452    1.1042 H   0  0  0  1  0  0  0  0  0  0  0  0
   11.1053   -4.1038   -0.2313 C   0  0  0  1  0  0  0  0  0  0  0  0
   10.6552   -4.0146   -1.1980 H   0  0  0  1  0  0  0  0  0  0  0  0
   12.5016   -3.9124    0.0049 C   0  0  0  1  0  0  0  0  0  0  0  0
   12.9570   -3.3109    0.7637 H   0  0  0  1  0  0  0  0  0  0  0  0
   13.3681   -3.7122   -1.0824 O   0  0  0  1  0  0  0  0  0  0  0  0
   14.2608   -3.5706   -0.7590 H   0  0  0  1  0  0  0  0  0  0  0  0
   13.2090   -4.8024    1.5052 N   0  0  0  1  0  0  0  0  0  0  0  0
   12.7308   -4.4424    2.2812 H   0  0  0  1  0  0  0  0  0  0  0  0
   11.7642   -3.6078   -0.2025 O   0  0  0  1  0  0  0  0  0  0  0  0
   12.5811   -4.7138    0.1839 C   0  0  0  1  0  0  0  0  0  0  0  0
   13.3548   -5.1292   -0.4274 H   0  0  0  1  0  0  0  0  0  0  0  0
   10.0699   -3.4241    0.6033 C   0  0  0  1  0  0  0  0  0  0  0  0
    9.0948   -3.7659    0.3255 H   0  0  0  1  0  0  0  0  0  0  0  0
   10.1292   -2.3644    0.4675 H   0  0  0  1  0  0  0  0  0  0  0  0
   10.3312   -3.7545    1.9598 O   0  0  0  1  0  0  0  0  0  0  0  0
   10.9732   -3.1391    2.3215 H   0  0  0  1  0  0  0  0  0  0  0  0
   14.4225   -5.3624    1.6905 C   0  0  0  1  0  0  0  0  0  0  0  0
   15.0699   -5.8044    0.7423 O   0  0  0  1  0  0  0  0  0  0  0  0
   14.9673   -5.4317    3.1038 C   0  0  0  1  0  0  0  0  0  0  0  0
   15.1434   -4.4411    3.4678 H   0  0  0  1  0  0  0  0  0  0  0  0
   15.8858   -5.9805    3.1052 H   0  0  0  1  0  0  0  0  0  0  0  0
   14.2570   -5.9226    3.7359 H   0  0  0  1  0  0  0  0  0  0  0  0
  1  2  1  0  0  0  0
  1  3  1  0  0  0  0
  1  5  1  0  0  0  0
  1 18  1  0  0  0  0
  3  4  1  0  0  0  0
  5  6  1  0  0  0  0
  5  7  1  0  0  0  0
  5  9  1  0  0  0  0
  7  8  1  0  0  0  0
  9 10  1  0  0  0  0
  9 17  1  0  0  0  0
  9 20  1  0  0  0  0
 11 12  1  0  0  0  0
 11 13  1  0  0  0  0
 11 17  1  0  0  0  0
 11 18  1  0  0  0  0
 13 14  1  0  0  0  0
 15 16  1  0  0  0  0
 15 18  1  0  0  0  0
 15 25  1  0  0  0  0
 18 19  1  0  0  0  0
 20 21  1  0  0  0  0
 20 22  1  0  0  0  0
 20 23  1  0  0  0  0
 23 24  1  0  0  0  0
 25 26  2  0  0  0  0
 25 27  1  0  0  0  0
 27 28  1  0  0  0  0
 27 29  1  0  0  0  0
 27 30  1  0  0  0  0
M  END
> <ConfClashScore>
0.0590636 

> <ConfOneFourInteractionScore>
-0.967492 

> <ConfScore>
6.58917 

> <ConfScorePBest>
0.00624046 

> <ConfTolerance>
0.442095 

$$$$
L09.****
  PyMOL2.4          3D                             0

 30 30  0  0  0  0  0  0  0  0999 V2000
   12.0510   -5.1991    0.3500 C   0  0  0  1  0  0  0  0  0  0  0  0
   12.2503   -5.7359    1.2539 H   0  0  0  1  0  0  0  0  0  0  0  0
   12.0267   -6.2573   -0.6115 O   0  0  0  1  0  0  0  0  0  0  0  0
   11.8211   -7.0854   -0.1715 H   0  0  0  1  0  0  0  0  0  0  0  0
   11.2936   -4.8711    0.3735 C   0  0  0  1  0  0  0  0  0  0  0  0
   10.7534   -5.1671    1.2484 H   0  0  0  1  0  0  0  0  0  0  0  0
   10.6092   -5.5724   -0.6663 O   0  0  0  1  0  0  0  0  0  0  0  0
    9.8988   -6.0948   -0.2868 H   0  0  0  1  0  0  0  0  0  0  0  0
   11.1838   -4.0730    0.1957 C   0  0  0  1  0  0  0  0  0  0  0  0
   10.6421   -3.6055    0.9912 H   0  0  0  1  0  0  0  0  0  0  0  0
   12.5878   -3.9301   -0.0291 C   0  0  0  1  0  0  0  0  0  0  0  0
   13.2969   -3.3141    0.4834 H   0  0  0  1  0  0  0  0  0  0  0  0
   12.9663   -3.7889   -1.3520 O   0  0  0  1  0  0  0  0  0  0  0  0
   13.8037   -3.3218   -1.3976 H   0  0  0  1  0  0  0  0  0  0  0  0
   13.7244   -4.7854    1.2551 N   0  0  0  1  0  0  0  0  0  0  0  0
   14.6682   -4.9026    1.0188 H   0  0  0  1  0  0  0  0  0  0  0  0
   11.8315   -3.6029   -0.0056 O   0  0  0  1  0  0  0  0  0  0  0  0
   12.6975   -4.7282    0.1487 C   0  0  0  1  0  0  0  0  0  0  0  0
   13.2376   -5.1948   -0.6485 H   0  0  0  1  0  0  0  0  0  0  0  0
   10.2532   -3.8101   -0.9562 C   0  0  0  1  0  0  0  0  0  0  0  0
    9.3677   -4.3957   -0.8226 H   0  0  0  1  0  0  0  0  0  0  0  0
   10.7399   -4.1004   -1.8638 H   0  0  0  1  0  0  0  0  0  0  0  0
    9.8844   -2.4420   -1.0541 O   0  0  0  1  0  0  0  0  0  0  0  0
    9.0955   -2.2845   -0.5303 H   0  0  0  1  0  0  0  0  0  0  0  0
   13.3930   -4.6827    2.5354 C   0  0  0  1  0  0  0  0  0  0  0  0
   12.2392   -4.5322    2.8938 O   0  0  0  1  0  0  0  0  0  0  0  0
   14.5679   -4.7703    3.4686 C   0  0  0  1  0  0  0  0  0  0  0  0
   14.5603   -5.7184    3.9644 H   0  0  0  1  0  0  0  0  0  0  0  0
   14.5049   -3.9875    4.1954 H   0  0  0  1  0  0  0  0  0  0  0  0
   15.4749   -4.6673    2.9104 H   0  0  0  1  0  0  0  0  0  0  0  0
  1  2  1  0  0  0  0
  1  3  1  0  0  0  0
  1  5  1  0  0  0  0
  1 18  1  0  0  0  0
  3  4  1  0  0  0  0
  5  6  1  0  0  0  0
  5  7  1  0  0  0  0
  5  9  1  0  0  0  0
  7  8  1  0  0  0  0
  9 10  1  0  0  0  0
  9 17  1  0  0  0  0
  9 20  1  0  0  0  0
 11 12  1  0  0  0  0
 11 13  1  0  0  0  0
 11 17  1  0  0  0  0
 11 18  1  0  0  0  0
 13 14  1  0  0  0  0
 15 16  1  0  0  0  0
 15 18  1  0  0  0  0
 15 25  1  0  0  0  0
 18 19  1  0  0  0  0
 20 21  1  0  0  0  0
 20 22  1  0  0  0  0
 20 23  1  0  0  0  0
 23 24  1  0  0  0  0
 25 26  2  0  0  0  0
 25 27  1  0  0  0  0
 27 28  1  0  0  0  0
 27 29  1  0  0  0  0
 27 30  1  0  0  0  0
M  END
> <ConfClashScore>
0.0609003 

> <ConfOneFourInteractionScore>
-0.959966 

> <ConfScore>
6.66732 

> <ConfScorePBest>
0.00613746 

> <ConfTolerance>
0.789401 

$$$$
L09.****
  PyMOL2.4          3D                             0

 30 30  0  0  0  0  0  0  0  0999 V2000
   12.0785   -5.3310   -0.0812 C   0  0  0  1  0  0  0  0  0  0  0  0
   12.2726   -6.2404   -0.6106 H   0  0  0  1  0  0  0  0  0  0  0  0
   12.0702   -5.7741    1.2783 O   0  0  0  1  0  0  0  0  0  0  0  0
   11.8205   -6.7005    1.3119 H   0  0  0  1  0  0  0  0  0  0  0  0
   11.3216   -5.0458   -0.2472 C   0  0  0  1  0  0  0  0  0  0  0  0
   10.8139   -5.6869   -0.9372 H   0  0  0  1  0  0  0  0  0  0  0  0
   10.5402   -5.2056    0.9342 O   0  0  0  1  0  0  0  0  0  0  0  0
    9.7331   -5.6804    0.7228 H   0  0  0  1  0  0  0  0  0  0  0  0
   11.2143   -4.2526   -0.4473 C   0  0  0  1  0  0  0  0  0  0  0  0
   10.6335   -4.1717   -1.3423 H   0  0  0  1  0  0  0  0  0  0  0  0
   12.6195   -4.0292   -0.3158 C   0  0  0  1  0  0  0  0  0  0  0  0
   13.3502   -3.6816   -1.0159 H   0  0  0  1  0  0  0  0  0  0  0  0
   12.9537   -3.3504    0.8521 O   0  0  0  1  0  0  0  0  0  0  0  0
   13.6016   -2.6704    0.6532 H   0  0  0  1  0  0  0  0  0  0  0  0
   13.5873   -5.3069   -1.2274 N   0  0  0  1  0  0  0  0  0  0  0  0
   13.1611   -5.6427   -2.0435 H   0  0  0  1  0  0  0  0  0  0  0  0
   11.8638   -3.7448   -0.4814 O   0  0  0  1  0  0  0  0  0  0  0  0
   12.7269   -4.8224   -0.1157 C   0  0  0  1  0  0  0  0  0  0  0  0
   13.3715   -4.9378    0.7305 H   0  0  0  1  0  0  0  0  0  0  0  0
   10.3560   -3.5055    0.5139 C   0  0  0  1  0  0  0  0  0  0  0  0
   10.4916   -2.4588    0.3386 H   0  0  0  1  0  0  0  0  0  0  0  0
   10.6779   -3.7463    1.5056 H   0  0  0  1  0  0  0  0  0  0  0  0
    8.9689   -3.7950    0.4160 O   0  0  0  1  0  0  0  0  0  0  0  0
    8.6666   -4.1958    1.2342 H   0  0  0  1  0  0  0  0  0  0  0  0
   14.9213   -5.3003   -1.1524 C   0  0  0  1  0  0  0  0  0  0  0  0
   15.5334   -4.9122   -0.1609 O   0  0  0  1  0  0  0  0  0  0  0  0
   15.6525   -5.8071   -2.3803 C   0  0  0  1  0  0  0  0  0  0  0  0
   15.8627   -4.9871   -3.0347 H   0  0  0  1  0  0  0  0  0  0  0  0
   15.0407   -6.5220   -2.8897 H   0  0  0  1  0  0  0  0  0  0  0  0
   16.5702   -6.2700   -2.0828 H   0  0  0  1  0  0  0  0  0  0  0  0
  1  2  1  0  0  0  0
  1  3  1  0  0  0  0
  1  5  1  0  0  0  0
  1 18  1  0  0  0  0
  3  4  1  0  0  0  0
  5  6  1  0  0  0  0
  5  7  1  0  0  0  0
  5  9  1  0  0  0  0
  7  8  1  0  0  0  0
  9 10  1  0  0  0  0
  9 17  1  0  0  0  0
  9 20  1  0  0  0  0
 11 12  1  0  0  0  0
 11 13  1  0  0  0  0
 11 17  1  0  0  0  0
 11 18  1  0  0  0  0
 13 14  1  0  0  0  0
 15 16  1  0  0  0  0
 15 18  1  0  0  0  0
 15 25  1  0  0  0  0
 18 19  1  0  0  0  0
 20 21  1  0  0  0  0
 20 22  1  0  0  0  0
 20 23  1  0  0  0  0
 23 24  1  0  0  0  0
 25 26  2  0  0  0  0
 25 27  1  0  0  0  0
 27 28  1  0  0  0  0
 27 29  1  0  0  0  0
 27 30  1  0  0  0  0
M  END
> <ConfClashScore>
0.0607763 

> <ConfOneFourInteractionScore>
-0.95717 

> <ConfScore>
6.76304 

> <ConfScorePBest>
0.00603446 

> <ConfTolerance>
0.577759 

$$$$
L09.****
  PyMOL2.4          3D                             0

 30 30  0  0  0  0  0  0  0  0999 V2000
   11.9307   -5.1607   -0.3510 C   0  0  0  1  0  0  0  0  0  0  0  0
   12.0381   -5.4264   -1.3818 H   0  0  0  1  0  0  0  0  0  0  0  0
   12.0571   -6.4321    0.2910 O   0  0  0  1  0  0  0  0  0  0  0  0
   12.1224   -7.1216   -0.3737 H   0  0  0  1  0  0  0  0  0  0  0  0
   11.1778   -4.8535   -0.2076 C   0  0  0  1  0  0  0  0  0  0  0  0
   10.6004   -4.8397   -1.1083 H   0  0  0  1  0  0  0  0  0  0  0  0
   10.5463   -5.9004    0.5252 O   0  0  0  1  0  0  0  0  0  0  0  0
   10.7274   -5.7906    1.4616 H   0  0  0  1  0  0  0  0  0  0  0  0
   11.0934   -4.1421    0.2015 C   0  0  0  1  0  0  0  0  0  0  0  0
   10.3415   -4.2072    0.9600 H   0  0  0  1  0  0  0  0  0  0  0  0
   12.5137   -4.0441    0.3242 C   0  0  0  1  0  0  0  0  0  0  0  0
   13.1185   -4.0258    1.2067 H   0  0  0  1  0  0  0  0  0  0  0  0
   13.1170   -3.0801   -0.4753 O   0  0  0  1  0  0  0  0  0  0  0  0
   14.0706   -3.1849   -0.4393 H   0  0  0  1  0  0  0  0  0  0  0  0
   13.3510   -5.6286    0.8087 N   0  0  0  1  0  0  0  0  0  0  0  0
   13.1178   -5.6127    1.7604 H   0  0  0  1  0  0  0  0  0  0  0  0
   11.7619   -3.7378    0.4672 O   0  0  0  1  0  0  0  0  0  0  0  0
   12.5981   -4.7556   -0.0848 C   0  0  0  1  0  0  0  0  0  0  0  0
   13.2943   -4.6333   -0.8881 H   0  0  0  1  0  0  0  0  0  0  0  0
   10.4689   -3.1734   -0.7612 C   0  0  0  1  0  0  0  0  0  0  0  0
   10.9929   -3.2107   -1.6933 H   0  0  0  1  0  0  0  0  0  0  0  0
   10.5270   -2.1840   -0.3580 H   0  0  0  1  0  0  0  0  0  0  0  0
    9.1033   -3.5194   -0.9716 O   0  0  0  1  0  0  0  0  0  0  0  0
    8.9972   -3.8835   -1.8535 H   0  0  0  1  0  0  0  0  0  0  0  0
   14.3657   -6.4745    0.4153 C   0  0  0  1  0  0  0  0  0  0  0  0
   14.8755   -7.2312    1.2200 O   0  0  0  1  0  0  0  0  0  0  0  0
   14.7709   -6.3868   -1.0272 C   0  0  0  1  0  0  0  0  0  0  0  0
   15.5440   -5.6553   -1.1372 H   0  0  0  1  0  0  0  0  0  0  0  0
   13.9253   -6.1033   -1.6183 H   0  0  0  1  0  0  0  0  0  0  0  0
   15.1322   -7.3393   -1.3544 H   0  0  0  1  0  0  0  0  0  0  0  0
  1  2  1  0  0  0  0
  1  3  1  0  0  0  0
  1  5  1  0  0  0  0
  1 18  1  0  0  0  0
  3  4  1  0  0  0  0
  5  6  1  0  0  0  0
  5  7  1  0  0  0  0
  5  9  1  0  0  0  0
  7  8  1  0  0  0  0
  9 10  1  0  0  0  0
  9 17  1  0  0  0  0
  9 20  1  0  0  0  0
 11 12  1  0  0  0  0
 11 13  1  0  0  0  0
 11 17  1  0  0  0  0
 11 18  1  0  0  0  0
 13 14  1  0  0  0  0
 15 16  1  0  0  0  0
 15 18  1  0  0  0  0
 15 25  1  0  0  0  0
 18 19  1  0  0  0  0
 20 21  1  0  0  0  0
 20 22  1  0  0  0  0
 20 23  1  0  0  0  0
 23 24  1  0  0  0  0
 25 26  2  0  0  0  0
 25 27  1  0  0  0  0
 27 28  1  0  0  0  0
 27 29  1  0  0  0  0
 27 30  1  0  0  0  0
M  END
> <ConfClashScore>
0.0564187 

> <ConfOneFourInteractionScore>
-0.942232 

> <ConfScore>
6.76511 

> <ConfScorePBest>
0.00593146 

> <ConfTolerance>
0.911423 

$$$$
L09.****
  PyMOL2.4          3D                             0

 30 30  0  0  0  0  0  0  0  0999 V2000
   11.9533   -5.1535    0.4286 C   0  0  0  1  0  0  0  0  0  0  0  0
   11.9379   -5.6121    1.3952 H   0  0  0  1  0  0  0  0  0  0  0  0
   12.0946   -6.2798   -0.4410 O   0  0  0  1  0  0  0  0  0  0  0  0
   12.2526   -7.0698    0.0811 H   0  0  0  1  0  0  0  0  0  0  0  0
   11.2139   -4.8480    0.2244 C   0  0  0  1  0  0  0  0  0  0  0  0
   10.4910   -5.0151    0.9954 H   0  0  0  1  0  0  0  0  0  0  0  0
   10.7899   -5.7584   -0.7934 O   0  0  0  1  0  0  0  0  0  0  0  0
   10.0906   -6.3196   -0.4503 H   0  0  0  1  0  0  0  0  0  0  0  0
   11.1541   -4.0875   -0.0897 C   0  0  0  1  0  0  0  0  0  0  0  0
   10.5726   -4.1042   -0.9878 H   0  0  0  1  0  0  0  0  0  0  0  0
   12.5721   -3.9372    0.0041 C   0  0  0  1  0  0  0  0  0  0  0  0
   13.1065   -3.2398    0.6149 H   0  0  0  1  0  0  0  0  0  0  0  0
   13.3324   -3.9350   -1.1655 O   0  0  0  1  0  0  0  0  0  0  0  0
   13.8516   -3.1287   -1.2087 H   0  0  0  1  0  0  0  0  0  0  0  0
   13.5611   -5.4256   -0.5681 N   0  0  0  1  0  0  0  0  0  0  0  0
   13.3641   -5.4683   -1.5272 H   0  0  0  1  0  0  0  0  0  0  0  0
   11.8337   -3.6325   -0.1997 O   0  0  0  1  0  0  0  0  0  0  0  0
   12.6319   -4.6977    0.3182 C   0  0  0  1  0  0  0  0  0  0  0  0
   13.1971   -4.6683    1.2263 H   0  0  0  1  0  0  0  0  0  0  0  0
   10.2922   -3.2253    0.7910 C   0  0  0  1  0  0  0  0  0  0  0  0
   10.8002   -3.0403    1.7143 H   0  0  0  1  0  0  0  0  0  0  0  0
    9.3682   -3.7282    0.9863 H   0  0  0  1  0  0  0  0  0  0  0  0
   10.0292   -1.9900    0.1411 O   0  0  0  1  0  0  0  0  0  0  0  0
   10.7737   -1.7575   -0.4187 H   0  0  0  1  0  0  0  0  0  0  0  0
   14.7272   -6.0642   -0.0808 C   0  0  0  1  0  0  0  0  0  0  0  0
   14.9766   -6.2136    1.1138 O   0  0  0  1  0  0  0  0  0  0  0  0
   15.6333   -6.6523   -1.1489 C   0  0  0  1  0  0  0  0  0  0  0  0
   15.4785   -6.1353   -2.0729 H   0  0  0  1  0  0  0  0  0  0  0  0
   15.4049   -7.6896   -1.2784 H   0  0  0  1  0  0  0  0  0  0  0  0
   16.6546   -6.5463   -0.8479 H   0  0  0  1  0  0  0  0  0  0  0  0
  1  2  1  0  0  0  0
  1  3  1  0  0  0  0
  1  5  1  0  0  0  0
  1 18  1  0  0  0  0
  3  4  1  0  0  0  0
  5  6  1  0  0  0  0
  5  7  1  0  0  0  0
  5  9  1  0  0  0  0
  7  8  1  0  0  0  0
  9 10  1  0  0  0  0
  9 17  1  0  0  0  0
  9 20  1  0  0  0  0
 11 12  1  0  0  0  0
 11 13  1  0  0  0  0
 11 17  1  0  0  0  0
 11 18  1  0  0  0  0
 13 14  1  0  0  0  0
 15 16  1  0  0  0  0
 15 18  1  0  0  0  0
 15 25  1  0  0  0  0
 18 19  1  0  0  0  0
 20 21  1  0  0  0  0
 20 22  1  0  0  0  0
 20 23  1  0  0  0  0
 23 24  1  0  0  0  0
 25 26  2  0  0  0  0
 25 27  1  0  0  0  0
 27 28  1  0  0  0  0
 27 29  1  0  0  0  0
 27 30  1  0  0  0  0
M  END
> <ConfClashScore>
0.0633314 

> <ConfOneFourInteractionScore>
-0.95717 

> <ConfScore>
6.80898 

> <ConfScorePBest>
0.00582846 

> <ConfTolerance>
0.254606 

$$$$
L09.****
  PyMOL2.4          3D                             0

 30 30  0  0  0  0  0  0  0  0999 V2000
   12.0526   -5.2509    0.1780 C   0  0  0  1  0  0  0  0  0  0  0  0
   12.0779   -5.6287    1.1787 H   0  0  0  1  0  0  0  0  0  0  0  0
   12.0524   -6.4614   -0.5832 O   0  0  0  1  0  0  0  0  0  0  0  0
   11.8585   -7.2031   -0.0055 H   0  0  0  1  0  0  0  0  0  0  0  0
   11.3156   -4.9137    0.0198 C   0  0  0  1  0  0  0  0  0  0  0  0
   10.7064   -5.5927   -0.5393 H   0  0  0  1  0  0  0  0  0  0  0  0
   10.6470   -4.8960    1.2785 O   0  0  0  1  0  0  0  0  0  0  0  0
    9.8915   -5.4876    1.2484 H   0  0  0  1  0  0  0  0  0  0  0  0
   11.2693   -4.1546   -0.3000 C   0  0  0  1  0  0  0  0  0  0  0  0
   10.5642   -3.5524    0.2340 H   0  0  0  1  0  0  0  0  0  0  0  0
   12.6957   -4.0690   -0.3038 C   0  0  0  1  0  0  0  0  0  0  0  0
   13.3238   -3.9968   -1.1670 H   0  0  0  1  0  0  0  0  0  0  0  0
   13.3692   -3.2312    0.6059 O   0  0  0  1  0  0  0  0  0  0  0  0
   12.9304   -2.3781    0.6412 H   0  0  0  1  0  0  0  0  0  0  0  0
   13.3976   -5.6500   -1.0284 N   0  0  0  1  0  0  0  0  0  0  0  0
   12.8549   -5.9973   -1.7668 H   0  0  0  1  0  0  0  0  0  0  0  0
   11.9598   -3.7327   -0.4616 O   0  0  0  1  0  0  0  0  0  0  0  0
   12.7421   -4.8281    0.0159 C   0  0  0  1  0  0  0  0  0  0  0  0
   13.4463   -4.8837    0.8196 H   0  0  0  1  0  0  0  0  0  0  0  0
   10.6286   -4.2274   -1.6562 C   0  0  0  1  0  0  0  0  0  0  0  0
   10.5229   -3.2393   -2.0530 H   0  0  0  1  0  0  0  0  0  0  0  0
    9.6642   -4.6827   -1.5699 H   0  0  0  1  0  0  0  0  0  0  0  0
   11.4407   -5.0024   -2.5282 O   0  0  0  1  0  0  0  0  0  0  0  0
   12.3128   -4.6061   -2.5906 H   0  0  0  1  0  0  0  0  0  0  0  0
   14.7028   -5.9340   -0.9983 C   0  0  0  1  0  0  0  0  0  0  0  0
   15.4712   -5.5296   -0.1267 O   0  0  0  1  0  0  0  0  0  0  0  0
   15.1819   -6.8920   -2.0866 C   0  0  0  1  0  0  0  0  0  0  0  0
   15.3606   -6.3463   -2.9895 H   0  0  0  1  0  0  0  0  0  0  0  0
   14.4328   -7.6356   -2.2619 H   0  0  0  1  0  0  0  0  0  0  0  0
   16.0881   -7.3654   -1.7710 H   0  0  0  1  0  0  0  0  0  0  0  0
  1  2  1  0  0  0  0
  1  3  1  0  0  0  0
  1  5  1  0  0  0  0
  1 18  1  0  0  0  0
  3  4  1  0  0  0  0
  5  6  1  0  0  0  0
  5  7  1  0  0  0  0
  5  9  1  0  0  0  0
  7  8  1  0  0  0  0
  9 10  1  0  0  0  0
  9 17  1  0  0  0  0
  9 20  1  0  0  0  0
 11 12  1  0  0  0  0
 11 13  1  0  0  0  0
 11 17  1  0  0  0  0
 11 18  1  0  0  0  0
 13 14  1  0  0  0  0
 15 16  1  0  0  0  0
 15 18  1  0  0  0  0
 15 25  1  0  0  0  0
 18 19  1  0  0  0  0
 20 21  1  0  0  0  0
 20 22  1  0  0  0  0
 20 23  1  0  0  0  0
 23 24  1  0  0  0  0
 25 26  2  0  0  0  0
 25 27  1  0  0  0  0
 27 28  1  0  0  0  0
 27 29  1  0  0  0  0
 27 30  1  0  0  0  0
M  END
> <ConfClashScore>
0.0633682 

> <ConfOneFourInteractionScore>
-0.957877 

> <ConfScore>
6.82738 

> <ConfScorePBest>
0.00572546 

> <ConfTolerance>
1.03792 

$$$$
L09.****
  PyMOL2.4          3D                             0

 30 30  0  0  0  0  0  0  0  0999 V2000
   11.9815   -5.3364    0.2037 C   0  0  0  1  0  0  0  0  0  0  0  0
   11.9170   -6.3753   -0.0442 H   0  0  0  1  0  0  0  0  0  0  0  0
   12.2584   -5.3601    1.6064 O   0  0  0  1  0  0  0  0  0  0  0  0
   11.6966   -6.0112    2.0330 H   0  0  0  1  0  0  0  0  0  0  0  0
   11.2525   -4.9515    0.1556 C   0  0  0  1  0  0  0  0  0  0  0  0
   10.7281   -4.9818    1.0877 H   0  0  0  1  0  0  0  0  0  0  0  0
   10.4363   -5.7688   -0.6797 O   0  0  0  1  0  0  0  0  0  0  0  0
   10.8015   -5.7853   -1.5673 H   0  0  0  1  0  0  0  0  0  0  0  0
   11.2010   -4.2082   -0.1986 C   0  0  0  1  0  0  0  0  0  0  0  0
   10.3803   -4.1520   -0.8828 H   0  0  0  1  0  0  0  0  0  0  0  0
   12.6063   -4.2338   -0.4568 C   0  0  0  1  0  0  0  0  0  0  0  0
   13.1371   -4.1979   -1.3851 H   0  0  0  1  0  0  0  0  0  0  0  0
   13.3395   -3.3706    0.3494 O   0  0  0  1  0  0  0  0  0  0  0  0
   13.1652   -2.4632    0.0888 H   0  0  0  1  0  0  0  0  0  0  0  0
   13.3211   -5.9328   -1.0701 N   0  0  0  1  0  0  0  0  0  0  0  0
   13.6420   -5.6068   -1.9368 H   0  0  0  1  0  0  0  0  0  0  0  0
   11.8784   -3.8498   -0.5047 O   0  0  0  1  0  0  0  0  0  0  0  0
   12.6578   -4.9771   -0.1026 C   0  0  0  1  0  0  0  0  0  0  0  0
   13.4032   -4.9402    0.6641 H   0  0  0  1  0  0  0  0  0  0  0  0
   10.7672   -3.2420    0.8782 C   0  0  0  1  0  0  0  0  0  0  0  0
    9.8350   -3.5759    1.2837 H   0  0  0  1  0  0  0  0  0  0  0  0
   10.6400   -2.2742    0.4401 H   0  0  0  1  0  0  0  0  0  0  0  0
   11.7146   -3.1441    1.9334 O   0  0  0  1  0  0  0  0  0  0  0  0
   12.0965   -2.2633    1.9405 H   0  0  0  1  0  0  0  0  0  0  0  0
   13.4718   -7.2328   -0.7420 C   0  0  0  1  0  0  0  0  0  0  0  0
   13.2664   -7.6659    0.3910 O   0  0  0  1  0  0  0  0  0  0  0  0
   13.9164   -8.1485   -1.8659 C   0  0  0  1  0  0  0  0  0  0  0  0
   14.0835   -9.1324   -1.4800 H   0  0  0  1  0  0  0  0  0  0  0  0
   14.8233   -7.7743   -2.2929 H   0  0  0  1  0  0  0  0  0  0  0  0
   13.1560   -8.1850   -2.6178 H   0  0  0  1  0  0  0  0  0  0  0  0
  1  2  1  0  0  0  0
  1  3  1  0  0  0  0
  1  5  1  0  0  0  0
  1 18  1  0  0  0  0
  3  4  1  0  0  0  0
  5  6  1  0  0  0  0
  5  7  1  0  0  0  0
  5  9  1  0  0  0  0
  7  8  1  0  0  0  0
  9 10  1  0  0  0  0
  9 17  1  0  0  0  0
  9 20  1  0  0  0  0
 11 12  1  0  0  0  0
 11 13  1  0  0  0  0
 11 17  1  0  0  0  0
 11 18  1  0  0  0  0
 13 14  1  0  0  0  0
 15 16  1  0  0  0  0
 15 18  1  0  0  0  0
 15 25  1  0  0  0  0
 18 19  1  0  0  0  0
 20 21  1  0  0  0  0
 20 22  1  0  0  0  0
 20 23  1  0  0  0  0
 23 24  1  0  0  0  0
 25 26  2  0  0  0  0
 25 27  1  0  0  0  0
 27 28  1  0  0  0  0
 27 29  1  0  0  0  0
 27 30  1  0  0  0  0
M  END
> <ConfClashScore>
0.0623734 

> <ConfOneFourInteractionScore>
-0.945012 

> <ConfScore>
6.83331 

> <ConfScorePBest>
0.00562246 

> <ConfTolerance>
0.795595 

$$$$
L09.****
  PyMOL2.4          3D                             0

 30 30  0  0  0  0  0  0  0  0999 V2000
   12.0452   -5.2027    0.1313 C   0  0  0  1  0  0  0  0  0  0  0  0
   12.0588   -5.5005    1.1590 H   0  0  0  1  0  0  0  0  0  0  0  0
   12.1382   -6.4596   -0.5441 O   0  0  0  1  0  0  0  0  0  0  0  0
   12.3720   -7.1453    0.0857 H   0  0  0  1  0  0  0  0  0  0  0  0
   11.3009   -4.9195   -0.0867 C   0  0  0  1  0  0  0  0  0  0  0  0
   10.7197   -5.6877   -0.5523 H   0  0  0  1  0  0  0  0  0  0  0  0
   10.6578   -4.7877    1.1786 O   0  0  0  1  0  0  0  0  0  0  0  0
    9.9291   -5.4102    1.2341 H   0  0  0  1  0  0  0  0  0  0  0  0
   11.2346   -4.2077   -0.4985 C   0  0  0  1  0  0  0  0  0  0  0  0
   10.6173   -4.3357   -1.3631 H   0  0  0  1  0  0  0  0  0  0  0  0
   12.6559   -4.0616   -0.4749 C   0  0  0  1  0  0  0  0  0  0  0  0
   13.3863   -3.9575   -1.2499 H   0  0  0  1  0  0  0  0  0  0  0  0
   13.0466   -3.0916    0.4687 O   0  0  0  1  0  0  0  0  0  0  0  0
   12.7721   -3.3689    1.3458 H   0  0  0  1  0  0  0  0  0  0  0  0
   13.5299   -5.6317   -0.9342 N   0  0  0  1  0  0  0  0  0  0  0  0
   13.2633   -5.7707   -1.8669 H   0  0  0  1  0  0  0  0  0  0  0  0
   11.9127   -3.7792   -0.6924 O   0  0  0  1  0  0  0  0  0  0  0  0
   12.7222   -4.7734   -0.0630 C   0  0  0  1  0  0  0  0  0  0  0  0
   13.3634   -4.6651    0.7867 H   0  0  0  1  0  0  0  0  0  0  0  0
   10.4664   -3.1524    0.2438 C   0  0  0  1  0  0  0  0  0  0  0  0
   10.8612   -3.0552    1.2336 H   0  0  0  1  0  0  0  0  0  0  0  0
    9.4355   -3.4339    0.2966 H   0  0  0  1  0  0  0  0  0  0  0  0
   10.5825   -1.9090   -0.4353 O   0  0  0  1  0  0  0  0  0  0  0  0
    9.8211   -1.7836   -1.0065 H   0  0  0  1  0  0  0  0  0  0  0  0
   14.6287   -6.2251   -0.4594 C   0  0  0  1  0  0  0  0  0  0  0  0
   15.0552   -6.0619    0.6830 O   0  0  0  1  0  0  0  0  0  0  0  0
   15.2936   -7.2196   -1.4149 C   0  0  0  1  0  0  0  0  0  0  0  0
   15.0031   -6.9974   -2.4205 H   0  0  0  1  0  0  0  0  0  0  0  0
   14.9851   -8.2135   -1.1662 H   0  0  0  1  0  0  0  0  0  0  0  0
   16.3571   -7.1428   -1.3259 H   0  0  0  1  0  0  0  0  0  0  0  0
  1  2  1  0  0  0  0
  1  3  1  0  0  0  0
  1  5  1  0  0  0  0
  1 18  1  0  0  0  0
  3  4  1  0  0  0  0
  5  6  1  0  0  0  0
  5  7  1  0  0  0  0
  5  9  1  0  0  0  0
  7  8  1  0  0  0  0
  9 10  1  0  0  0  0
  9 17  1  0  0  0  0
  9 20  1  0  0  0  0
 11 12  1  0  0  0  0
 11 13  1  0  0  0  0
 11 17  1  0  0  0  0
 11 18  1  0  0  0  0
 13 14  1  0  0  0  0
 15 16  1  0  0  0  0
 15 18  1  0  0  0  0
 15 25  1  0  0  0  0
 18 19  1  0  0  0  0
 20 21  1  0  0  0  0
 20 22  1  0  0  0  0
 20 23  1  0  0  0  0
 23 24  1  0  0  0  0
 25 26  2  0  0  0  0
 25 27  1  0  0  0  0
 27 28  1  0  0  0  0
 27 29  1  0  0  0  0
 27 30  1  0  0  0  0
M  END
> <ConfClashScore>
0.0618123 

> <ConfOneFourInteractionScore>
-0.969401 

> <ConfScore>
6.84217 

> <ConfScorePBest>
0.00551946 

> <ConfTolerance>
0.755386 

$$$$
L09.****
  PyMOL2.4          3D                             0

 30 30  0  0  0  0  0  0  0  0999 V2000
   12.0127   -5.3017   -0.1090 C   0  0  0  1  0  0  0  0  0  0  0  0
   12.1439   -6.2047   -0.6678 H   0  0  0  1  0  0  0  0  0  0  0  0
   11.9220   -5.7935    1.2306 O   0  0  0  1  0  0  0  0  0  0  0  0
   12.0553   -6.7442    1.2327 H   0  0  0  1  0  0  0  0  0  0  0  0
   11.2681   -4.9732   -0.2485 C   0  0  0  1  0  0  0  0  0  0  0  0
   10.7220   -5.5664   -0.9519 H   0  0  0  1  0  0  0  0  0  0  0  0
   10.5718   -5.2483    0.9645 O   0  0  0  1  0  0  0  0  0  0  0  0
    9.9708   -5.9845    0.8291 H   0  0  0  1  0  0  0  0  0  0  0  0
   11.1982   -4.1714   -0.4298 C   0  0  0  1  0  0  0  0  0  0  0  0
   10.5801   -4.0291   -1.2915 H   0  0  0  1  0  0  0  0  0  0  0  0
   12.6164   -4.0257   -0.3325 C   0  0  0  1  0  0  0  0  0  0  0  0
   13.3324   -3.7182   -1.0658 H   0  0  0  1  0  0  0  0  0  0  0  0
   13.0499   -3.3709    0.8147 O   0  0  0  1  0  0  0  0  0  0  0  0
   13.6672   -2.6765    0.5733 H   0  0  0  1  0  0  0  0  0  0  0  0
   13.6014   -5.4202   -1.1201 N   0  0  0  1  0  0  0  0  0  0  0  0
   13.2478   -5.7167   -1.9846 H   0  0  0  1  0  0  0  0  0  0  0  0
   11.8729   -3.6981   -0.4716 O   0  0  0  1  0  0  0  0  0  0  0  0
   12.6864   -4.8275   -0.1512 C   0  0  0  1  0  0  0  0  0  0  0  0
   13.2520   -4.9373    0.7505 H   0  0  0  1  0  0  0  0  0  0  0  0
   10.4053   -3.4465    0.6194 C   0  0  0  1  0  0  0  0  0  0  0  0
    9.3718   -3.7079    0.5279 H   0  0  0  1  0  0  0  0  0  0  0  0
   10.5201   -2.3911    0.4859 H   0  0  0  1  0  0  0  0  0  0  0  0
   10.8737   -3.8137    1.9135 O   0  0  0  1  0  0  0  0  0  0  0  0
   11.1214   -3.0244    2.4005 H   0  0  0  1  0  0  0  0  0  0  0  0
   14.9049   -5.5730   -0.8699 C   0  0  0  1  0  0  0  0  0  0  0  0
   15.4148   -5.3019    0.2164 O   0  0  0  1  0  0  0  0  0  0  0  0
   15.7378   -6.1084   -2.0184 C   0  0  0  1  0  0  0  0  0  0  0  0
   15.0911   -6.4778   -2.7867 H   0  0  0  1  0  0  0  0  0  0  0  0
   16.3623   -6.9025   -1.6658 H   0  0  0  1  0  0  0  0  0  0  0  0
   16.3476   -5.3227   -2.4130 H   0  0  0  1  0  0  0  0  0  0  0  0
  1  2  1  0  0  0  0
  1  3  1  0  0  0  0
  1  5  1  0  0  0  0
  1 18  1  0  0  0  0
  3  4  1  0  0  0  0
  5  6  1  0  0  0  0
  5  7  1  0  0  0  0
  5  9  1  0  0  0  0
  7  8  1  0  0  0  0
  9 10  1  0  0  0  0
  9 17  1  0  0  0  0
  9 20  1  0  0  0  0
 11 12  1  0  0  0  0
 11 13  1  0  0  0  0
 11 17  1  0  0  0  0
 11 18  1  0  0  0  0
 13 14  1  0  0  0  0
 15 16  1  0  0  0  0
 15 18  1  0  0  0  0
 15 25  1  0  0  0  0
 18 19  1  0  0  0  0
 20 21  1  0  0  0  0
 20 22  1  0  0  0  0
 20 23  1  0  0  0  0
 23 24  1  0  0  0  0
 25 26  2  0  0  0  0
 25 27  1  0  0  0  0
 27 28  1  0  0  0  0
 27 29  1  0  0  0  0
 27 30  1  0  0  0  0
M  END
> <ConfClashScore>
0.0628027 

> <ConfOneFourInteractionScore>
-0.967492 

> <ConfScore>
6.92847 

> <ConfScorePBest>
0.00541646 

> <ConfTolerance>
1.06722 

$$$$
L09.****
  PyMOL2.4          3D                             0

 30 30  0  0  0  0  0  0  0  0999 V2000
   12.0730   -5.2586   -0.1167 C   0  0  0  1  0  0  0  0  0  0  0  0
   12.3159   -5.8625   -0.9659 H   0  0  0  1  0  0  0  0  0  0  0  0
   11.8488   -6.2560    0.8830 O   0  0  0  1  0  0  0  0  0  0  0  0
   11.8633   -7.1257    0.4769 H   0  0  0  1  0  0  0  0  0  0  0  0
   11.3344   -4.9056   -0.2247 C   0  0  0  1  0  0  0  0  0  0  0  0
   10.9294   -5.1955   -1.1716 H   0  0  0  1  0  0  0  0  0  0  0  0
   10.4378   -5.5548    0.6734 O   0  0  0  1  0  0  0  0  0  0  0  0
    9.7801   -6.0429    0.1726 H   0  0  0  1  0  0  0  0  0  0  0  0
   11.2467   -4.0919   -0.1205 C   0  0  0  1  0  0  0  0  0  0  0  0
   10.7519   -3.6632   -0.9669 H   0  0  0  1  0  0  0  0  0  0  0  0
   12.6352   -3.9832    0.1994 C   0  0  0  1  0  0  0  0  0  0  0  0
   13.1298   -3.6303    1.0802 H   0  0  0  1  0  0  0  0  0  0  0  0
   13.4674   -3.5000   -0.8424 O   0  0  0  1  0  0  0  0  0  0  0  0
   13.4448   -2.5403   -0.8515 H   0  0  0  1  0  0  0  0  0  0  0  0
   13.2608   -5.2954    1.3637 N   0  0  0  1  0  0  0  0  0  0  0  0
   12.8115   -5.0740    2.2061 H   0  0  0  1  0  0  0  0  0  0  0  0
   11.8976   -3.6312    0.0916 O   0  0  0  1  0  0  0  0  0  0  0  0
   12.7229   -4.7969    0.0952 C   0  0  0  1  0  0  0  0  0  0  0  0
   13.5409   -4.9936   -0.5659 H   0  0  0  1  0  0  0  0  0  0  0  0
   10.2483   -3.8101    0.9652 C   0  0  0  1  0  0  0  0  0  0  0  0
    9.2632   -3.9329    0.5659 H   0  0  0  1  0  0  0  0  0  0  0  0
   10.3764   -2.8006    1.2958 H   0  0  0  1  0  0  0  0  0  0  0  0
   10.3997   -4.6775    2.0797 O   0  0  0  1  0  0  0  0  0  0  0  0
   10.1323   -4.2201    2.8803 H   0  0  0  1  0  0  0  0  0  0  0  0
   14.3672   -6.0543    1.3745 C   0  0  0  1  0  0  0  0  0  0  0  0
   14.8777   -6.5069    0.3532 O   0  0  0  1  0  0  0  0  0  0  0  0
   14.9648   -6.3282    2.7409 C   0  0  0  1  0  0  0  0  0  0  0  0
   14.2752   -6.9023    3.3238 H   0  0  0  1  0  0  0  0  0  0  0  0
   15.1636   -5.4005    3.2355 H   0  0  0  1  0  0  0  0  0  0  0  0
   15.8774   -6.8753    2.6276 H   0  0  0  1  0  0  0  0  0  0  0  0
  1  2  1  0  0  0  0
  1  3  1  0  0  0  0
  1  5  1  0  0  0  0
  1 18  1  0  0  0  0
  3  4  1  0  0  0  0
  5  6  1  0  0  0  0
  5  7  1  0  0  0  0
  5  9  1  0  0  0  0
  7  8  1  0  0  0  0
  9 10  1  0  0  0  0
  9 17  1  0  0  0  0
  9 20  1  0  0  0  0
 11 12  1  0  0  0  0
 11 13  1  0  0  0  0
 11 17  1  0  0  0  0
 11 18  1  0  0  0  0
 13 14  1  0  0  0  0
 15 16  1  0  0  0  0
 15 18  1  0  0  0  0
 15 25  1  0  0  0  0
 18 19  1  0  0  0  0
 20 21  1  0  0  0  0
 20 22  1  0  0  0  0
 20 23  1  0  0  0  0
 23 24  1  0  0  0  0
 25 26  2  0  0  0  0
 25 27  1  0  0  0  0
 27 28  1  0  0  0  0
 27 29  1  0  0  0  0
 27 30  1  0  0  0  0
M  END
> <ConfClashScore>
0.0621886 

> <ConfOneFourInteractionScore>
-0.967492 

> <ConfScore>
6.93186 

> <ConfScorePBest>
0.00531345 

> <ConfTolerance>
0.824776 

$$$$
L09.****
  PyMOL2.4          3D                             0

 30 30  0  0  0  0  0  0  0  0999 V2000
   12.0413   -5.2396    0.1238 C   0  0  0  1  0  0  0  0  0  0  0  0
   12.2522   -6.0946   -0.4839 H   0  0  0  1  0  0  0  0  0  0  0  0
   12.0103   -5.8008    1.4394 O   0  0  0  1  0  0  0  0  0  0  0  0
   11.4848   -6.6042    1.4328 H   0  0  0  1  0  0  0  0  0  0  0  0
   11.2815   -4.9473   -0.0142 C   0  0  0  1  0  0  0  0  0  0  0  0
   10.6381   -5.2846    0.7713 H   0  0  0  1  0  0  0  0  0  0  0  0
   10.7351   -5.6412   -1.1186 O   0  0  0  1  0  0  0  0  0  0  0  0
   10.1537   -6.3373   -0.8039 H   0  0  0  1  0  0  0  0  0  0  0  0
   11.1640   -4.1378   -0.1218 C   0  0  0  1  0  0  0  0  0  0  0  0
   10.6250   -3.9775   -1.0321 H   0  0  0  1  0  0  0  0  0  0  0  0
   12.5649   -3.9120    0.0465 C   0  0  0  1  0  0  0  0  0  0  0  0
   13.0622   -3.3468    0.8069 H   0  0  0  1  0  0  0  0  0  0  0  0
   13.3413   -3.6284   -1.0893 O   0  0  0  1  0  0  0  0  0  0  0  0
   14.0854   -3.0758   -0.8390 H   0  0  0  1  0  0  0  0  0  0  0  0
   13.5777   -5.1770   -0.9036 N   0  0  0  1  0  0  0  0  0  0  0  0
   13.2738   -5.0749   -1.8297 H   0  0  0  1  0  0  0  0  0  0  0  0
   11.8062   -3.6206   -0.0913 O   0  0  0  1  0  0  0  0  0  0  0  0
   12.6825   -4.7215    0.1540 C   0  0  0  1  0  0  0  0  0  0  0  0
   13.2737   -4.9039    1.0270 H   0  0  0  1  0  0  0  0  0  0  0  0
   10.1491   -3.6869    0.8709 C   0  0  0  1  0  0  0  0  0  0  0  0
    9.2687   -4.2811    0.7415 H   0  0  0  1  0  0  0  0  0  0  0  0
    9.9200   -2.6609    0.6715 H   0  0  0  1  0  0  0  0  0  0  0  0
   10.5602   -3.7937    2.2263 O   0  0  0  1  0  0  0  0  0  0  0  0
   10.9550   -2.9651    2.5076 H   0  0  0  1  0  0  0  0  0  0  0  0
   14.7910   -5.7275   -0.7033 C   0  0  0  1  0  0  0  0  0  0  0  0
   15.4747   -6.2374   -1.5756 O   0  0  0  1  0  0  0  0  0  0  0  0
   15.2589   -5.6635    0.7376 C   0  0  0  1  0  0  0  0  0  0  0  0
   16.0534   -6.3645    0.8866 H   0  0  0  1  0  0  0  0  0  0  0  0
   14.4441   -5.9047    1.3880 H   0  0  0  1  0  0  0  0  0  0  0  0
   15.6092   -4.6762    0.9551 H   0  0  0  1  0  0  0  0  0  0  0  0
  1  2  1  0  0  0  0
  1  3  1  0  0  0  0
  1  5  1  0  0  0  0
  1 18  1  0  0  0  0
  3  4  1  0  0  0  0
  5  6  1  0  0  0  0
  5  7  1  0  0  0  0
  5  9  1  0  0  0  0
  7  8  1  0  0  0  0
  9 10  1  0  0  0  0
  9 17  1  0  0  0  0
  9 20  1  0  0  0  0
 11 12  1  0  0  0  0
 11 13  1  0  0  0  0
 11 17  1  0  0  0  0
 11 18  1  0  0  0  0
 13 14  1  0  0  0  0
 15 16  1  0  0  0  0
 15 18  1  0  0  0  0
 15 25  1  0  0  0  0
 18 19  1  0  0  0  0
 20 21  1  0  0  0  0
 20 22  1  0  0  0  0
 20 23  1  0  0  0  0
 23 24  1  0  0  0  0
 25 26  2  0  0  0  0
 25 27  1  0  0  0  0
 27 28  1  0  0  0  0
 27 29  1  0  0  0  0
 27 30  1  0  0  0  0
M  END
> <ConfClashScore>
0.0606193 

> <ConfOneFourInteractionScore>
-0.956674 

> <ConfScore>
6.9793 

> <ConfScorePBest>
0.00521045 

> <ConfTolerance>
1.23236 

$$$$
L09.****
  PyMOL2.4          3D                             0

 30 30  0  0  0  0  0  0  0  0999 V2000
   11.9138   -5.2708    0.1160 C   0  0  0  1  0  0  0  0  0  0  0  0
   11.8087   -5.9962   -0.6635 H   0  0  0  1  0  0  0  0  0  0  0  0
   12.1259   -6.1026    1.2595 O   0  0  0  1  0  0  0  0  0  0  0  0
   12.6343   -6.8757    1.0036 H   0  0  0  1  0  0  0  0  0  0  0  0
   11.2131   -4.8445    0.2118 C   0  0  0  1  0  0  0  0  0  0  0  0
   10.7129   -5.2022    1.0875 H   0  0  0  1  0  0  0  0  0  0  0  0
   10.3069   -5.2522   -0.7943 O   0  0  0  1  0  0  0  0  0  0  0  0
   10.1183   -6.1883   -0.6955 H   0  0  0  1  0  0  0  0  0  0  0  0
   11.2319   -4.0202    0.2373 C   0  0  0  1  0  0  0  0  0  0  0  0
   10.6824   -3.6575    1.0808 H   0  0  0  1  0  0  0  0  0  0  0  0
   12.6509   -4.0473    0.0713 C   0  0  0  1  0  0  0  0  0  0  0  0
   13.4073   -3.7004    0.7440 H   0  0  0  1  0  0  0  0  0  0  0  0
   13.1880   -3.7049   -1.1807 O   0  0  0  1  0  0  0  0  0  0  0  0
   13.3163   -2.7546   -1.2253 H   0  0  0  1  0  0  0  0  0  0  0  0
   13.3039   -5.3213   -1.1763 N   0  0  0  1  0  0  0  0  0  0  0  0
   12.7624   -5.3961   -1.9897 H   0  0  0  1  0  0  0  0  0  0  0  0
   11.9513   -3.6220    0.1669 O   0  0  0  1  0  0  0  0  0  0  0  0
   12.6322   -4.8717    0.0458 C   0  0  0  1  0  0  0  0  0  0  0  0
   13.3061   -5.2507    0.7855 H   0  0  0  1  0  0  0  0  0  0  0  0
   10.4249   -3.4550   -0.8991 C   0  0  0  1  0  0  0  0  0  0  0  0
    9.3859   -3.4812   -0.6449 H   0  0  0  1  0  0  0  0  0  0  0  0
   10.5922   -4.0398   -1.7794 H   0  0  0  1  0  0  0  0  0  0  0  0
   10.8176   -2.1119   -1.1429 O   0  0  0  1  0  0  0  0  0  0  0  0
   11.2794   -2.0605   -1.9830 H   0  0  0  1  0  0  0  0  0  0  0  0
   14.6118   -5.6399   -1.2663 C   0  0  0  1  0  0  0  0  0  0  0  0
   15.3423   -5.6119   -0.2767 O   0  0  0  1  0  0  0  0  0  0  0  0
   15.1576   -6.0346   -2.6248 C   0  0  0  1  0  0  0  0  0  0  0  0
   15.4170   -5.1543   -3.1750 H   0  0  0  1  0  0  0  0  0  0  0  0
   14.4132   -6.5842   -3.1620 H   0  0  0  1  0  0  0  0  0  0  0  0
   16.0278   -6.6437   -2.4960 H   0  0  0  1  0  0  0  0  0  0  0  0
  1  2  1  0  0  0  0
  1  3  1  0  0  0  0
  1  5  1  0  0  0  0
  1 18  1  0  0  0  0
  3  4  1  0  0  0  0
  5  6  1  0  0  0  0
  5  7  1  0  0  0  0
  5  9  1  0  0  0  0
  7  8  1  0  0  0  0
  9 10  1  0  0  0  0
  9 17  1  0  0  0  0
  9 20  1  0  0  0  0
 11 12  1  0  0  0  0
 11 13  1  0  0  0  0
 11 17  1  0  0  0  0
 11 18  1  0  0  0  0
 13 14  1  0  0  0  0
 15 16  1  0  0  0  0
 15 18  1  0  0  0  0
 15 25  1  0  0  0  0
 18 19  1  0  0  0  0
 20 21  1  0  0  0  0
 20 22  1  0  0  0  0
 20 23  1  0  0  0  0
 23 24  1  0  0  0  0
 25 26  2  0  0  0  0
 25 27  1  0  0  0  0
 27 28  1  0  0  0  0
 27 29  1  0  0  0  0
 27 30  1  0  0  0  0
M  END
> <ConfClashScore>
0.0631314 

> <ConfOneFourInteractionScore>
-0.973521 

> <ConfScore>
7.02662 

> <ConfScorePBest>
0.00510745 

> <ConfTolerance>
1.21334 

$$$$
L09.****
  PyMOL2.4          3D                             0

 30 30  0  0  0  0  0  0  0  0999 V2000
   12.0992   -5.3133    0.0842 C   0  0  0  1  0  0  0  0  0  0  0  0
   12.1537   -6.0124   -0.7240 H   0  0  0  1  0  0  0  0  0  0  0  0
   12.1417   -6.1872    1.2153 O   0  0  0  1  0  0  0  0  0  0  0  0
   11.8791   -7.0709    0.9476 H   0  0  0  1  0  0  0  0  0  0  0  0
   11.3465   -4.9752    0.1134 C   0  0  0  1  0  0  0  0  0  0  0  0
   10.7491   -5.4439    0.8673 H   0  0  0  1  0  0  0  0  0  0  0  0
   10.6852   -5.3850   -1.0810 O   0  0  0  1  0  0  0  0  0  0  0  0
    9.8391   -4.9367   -1.1488 H   0  0  0  1  0  0  0  0  0  0  0  0
   11.2635   -4.1549    0.1422 C   0  0  0  1  0  0  0  0  0  0  0  0
   10.6015   -3.8399   -0.6372 H   0  0  0  1  0  0  0  0  0  0  0  0
   12.6848   -4.0100    0.1125 C   0  0  0  1  0  0  0  0  0  0  0  0
   13.3267   -3.5843    0.8552 H   0  0  0  1  0  0  0  0  0  0  0  0
   13.2920   -3.5896   -1.0803 O   0  0  0  1  0  0  0  0  0  0  0  0
   12.7372   -2.9335   -1.5084 H   0  0  0  1  0  0  0  0  0  0  0  0
   13.6071   -5.2917    1.1932 N   0  0  0  1  0  0  0  0  0  0  0  0
   14.2281   -6.0287    1.0155 H   0  0  0  1  0  0  0  0  0  0  0  0
   11.9331   -3.6727    0.1417 O   0  0  0  1  0  0  0  0  0  0  0  0
   12.7678   -4.8303    0.0838 C   0  0  0  1  0  0  0  0  0  0  0  0
   13.3853   -5.0896   -0.7507 H   0  0  0  1  0  0  0  0  0  0  0  0
   10.4364   -3.8169    1.3491 C   0  0  0  1  0  0  0  0  0  0  0  0
   10.9202   -4.1899    2.2275 H   0  0  0  1  0  0  0  0  0  0  0  0
    9.4700   -4.2666    1.2553 H   0  0  0  1  0  0  0  0  0  0  0  0
   10.2932   -2.4064    1.4515 O   0  0  0  1  0  0  0  0  0  0  0  0
    9.4952   -2.2002    1.9438 H   0  0  0  1  0  0  0  0  0  0  0  0
   13.5893   -4.7811    2.4338 C   0  0  0  1  0  0  0  0  0  0  0  0
   12.7905   -3.9162    2.7909 O   0  0  0  1  0  0  0  0  0  0  0  0
   14.6231   -5.3360    3.3874 C   0  0  0  1  0  0  0  0  0  0  0  0
   15.6032   -5.1312    3.0104 H   0  0  0  1  0  0  0  0  0  0  0  0
   14.4908   -6.3937    3.4804 H   0  0  0  1  0  0  0  0  0  0  0  0
   14.5067   -4.8759    4.3464 H   0  0  0  1  0  0  0  0  0  0  0  0
  1  2  1  0  0  0  0
  1  3  1  0  0  0  0
  1  5  1  0  0  0  0
  1 18  1  0  0  0  0
  3  4  1  0  0  0  0
  5  6  1  0  0  0  0
  5  7  1  0  0  0  0
  5  9  1  0  0  0  0
  7  8  1  0  0  0  0
  9 10  1  0  0  0  0
  9 17  1  0  0  0  0
  9 20  1  0  0  0  0
 11 12  1  0  0  0  0
 11 13  1  0  0  0  0
 11 17  1  0  0  0  0
 11 18  1  0  0  0  0
 13 14  1  0  0  0  0
 15 16  1  0  0  0  0
 15 18  1  0  0  0  0
 15 25  1  0  0  0  0
 18 19  1  0  0  0  0
 20 21  1  0  0  0  0
 20 22  1  0  0  0  0
 20 23  1  0  0  0  0
 23 24  1  0  0  0  0
 25 26  2  0  0  0  0
 25 27  1  0  0  0  0
 27 28  1  0  0  0  0
 27 29  1  0  0  0  0
 27 30  1  0  0  0  0
M  END
> <ConfClashScore>
0.065602 

> <ConfOneFourInteractionScore>
-0.975611 

> <ConfScore>
7.15862 

> <ConfScorePBest>
0.00500445 

> <ConfTolerance>
0.880405 

$$$$
L09.****
  PyMOL2.4          3D                             0

 30 30  0  0  0  0  0  0  0  0999 V2000
   12.0448   -5.2015    0.3662 C   0  0  0  1  0  0  0  0  0  0  0  0
   12.1824   -5.4945    1.3861 H   0  0  0  1  0  0  0  0  0  0  0  0
   12.0230   -6.4621   -0.3051 O   0  0  0  1  0  0  0  0  0  0  0  0
   12.0851   -7.1700    0.3403 H   0  0  0  1  0  0  0  0  0  0  0  0
   11.2852   -4.9023    0.2425 C   0  0  0  1  0  0  0  0  0  0  0  0
   10.7026   -4.9294    1.1395 H   0  0  0  1  0  0  0  0  0  0  0  0
   10.6521   -5.8964   -0.5592 O   0  0  0  1  0  0  0  0  0  0  0  0
    9.6990   -5.8063   -0.4881 H   0  0  0  1  0  0  0  0  0  0  0  0
   11.1829   -4.1912   -0.1631 C   0  0  0  1  0  0  0  0  0  0  0  0
   10.4325   -4.2838   -0.9202 H   0  0  0  1  0  0  0  0  0  0  0  0
   12.5985   -4.0778   -0.3215 C   0  0  0  1  0  0  0  0  0  0  0  0
   13.1363   -4.1037   -1.2462 H   0  0  0  1  0  0  0  0  0  0  0  0
   13.3270   -3.1209    0.4015 O   0  0  0  1  0  0  0  0  0  0  0  0
   13.6153   -2.4228   -0.1910 H   0  0  0  1  0  0  0  0  0  0  0  0
   13.4692   -5.6874   -0.7839 N   0  0  0  1  0  0  0  0  0  0  0  0
   14.3130   -6.0428   -0.4346 H   0  0  0  1  0  0  0  0  0  0  0  0
   11.8401   -3.7793   -0.4449 O   0  0  0  1  0  0  0  0  0  0  0  0
   12.7009   -4.7889    0.0841 C   0  0  0  1  0  0  0  0  0  0  0  0
   13.3965   -4.6423    0.8837 H   0  0  0  1  0  0  0  0  0  0  0  0
   10.5559   -3.1775    0.7542 C   0  0  0  1  0  0  0  0  0  0  0  0
   11.2841   -2.8704    1.4755 H   0  0  0  1  0  0  0  0  0  0  0  0
    9.7275   -3.6336    1.2548 H   0  0  0  1  0  0  0  0  0  0  0  0
   10.0918   -2.0298    0.0579 O   0  0  0  1  0  0  0  0  0  0  0  0
    9.1897   -2.1762   -0.2359 H   0  0  0  1  0  0  0  0  0  0  0  0
   13.1022   -6.0609   -2.0253 C   0  0  0  1  0  0  0  0  0  0  0  0
   12.0528   -5.7479   -2.5629 O   0  0  0  1  0  0  0  0  0  0  0  0
   14.1362   -6.9374   -2.7344 C   0  0  0  1  0  0  0  0  0  0  0  0
   14.2363   -7.8657   -2.2118 H   0  0  0  1  0  0  0  0  0  0  0  0
   15.0800   -6.4335   -2.7498 H   0  0  0  1  0  0  0  0  0  0  0  0
   13.8156   -7.1260   -3.7377 H   0  0  0  1  0  0  0  0  0  0  0  0
  1  2  1  0  0  0  0
  1  3  1  0  0  0  0
  1  5  1  0  0  0  0
  1 18  1  0  0  0  0
  3  4  1  0  0  0  0
  5  6  1  0  0  0  0
  5  7  1  0  0  0  0
  5  9  1  0  0  0  0
  7  8  1  0  0  0  0
  9 10  1  0  0  0  0
  9 17  1  0  0  0  0
  9 20  1  0  0  0  0
 11 12  1  0  0  0  0
 11 13  1  0  0  0  0
 11 17  1  0  0  0  0
 11 18  1  0  0  0  0
 13 14  1  0  0  0  0
 15 16  1  0  0  0  0
 15 18  1  0  0  0  0
 15 25  1  0  0  0  0
 18 19  1  0  0  0  0
 20 21  1  0  0  0  0
 20 22  1  0  0  0  0
 20 23  1  0  0  0  0
 23 24  1  0  0  0  0
 25 26  2  0  0  0  0
 25 27  1  0  0  0  0
 27 28  1  0  0  0  0
 27 29  1  0  0  0  0
 27 30  1  0  0  0  0
M  END
> <ConfClashScore>
0.0684567 

> <ConfOneFourInteractionScore>
-0.96336 

> <ConfScore>
7.37926 

> <ConfScorePBest>
0.00490145 

> <ConfTolerance>
2.00225 

$$$$
