L09.****
     RDKit          3D

 30 30  0  0  0  0  0  0  0  0999 V2000
   11.9440   -5.3370    0.0000 C   0  0  2  0  0  0  0  0  0  0  0  0
   11.9440   -5.3370    1.0900 H   0  0  0  0  0  0  0  0  0  0  0  0
   11.9440   -6.1620    0.0000 O   0  0  0  0  0  0  0  0  0  0  0  0
   11.9440   -6.4520   -0.9150 H   0  0  0  0  0  0  0  0  0  0  0  0
   11.2290   -4.9240    0.0000 C   0  0  2  0  0  0  0  0  0  0  0  0
   11.2290   -4.9240    1.0900 H   0  0  0  0  0  0  0  0  0  0  0  0
   10.5150   -5.3370    0.0000 O   0  0  0  0  0  0  0  0  0  0  0  0
   10.6600   -6.1680    0.4580 H   0  0  0  0  0  0  0  0  0  0  0  0
   11.2290   -4.0990    0.0000 C   0  0  2  0  0  0  0  0  0  0  0  0
   11.2290   -4.0990   -1.0900 H   0  0  0  0  0  0  0  0  0  0  0  0
   12.6580   -4.0990    0.0000 C   0  0  2  0  0  0  0  0  0  0  0  0
   12.6580   -4.0990   -1.0900 H   0  0  0  0  0  0  0  0  0  0  0  0
   13.3720   -3.6870    0.0000 O   0  0  0  0  0  0  0  0  0  0  0  0
   13.2270   -2.8550   -0.4580 H   0  0  0  0  0  0  0  0  0  0  0  0
   13.3720   -5.3370    0.0000 N   0  0  0  0  0  0  0  0  0  0  0  0
   14.2470   -4.8320    0.0000 H   0  0  0  0  0  0  0  0  0  0  0  0
   11.9440   -3.6870    0.0000 O   0  0  0  0  0  0  0  0  0  0  0  0
   12.6580   -4.9240    0.0000 C   0  0  0  0  0  0  0  0  0  0  0  0
   12.6580   -4.9240    1.0900 H   0  0  0  0  0  0  0  0  0  0  0  0
   10.5150   -3.6870    0.0000 C   0  0  0  0  0  0  0  0  0  0  0  0
   10.5150   -3.0580   -0.8900 H   0  0  0  0  0  0  0  0  0  0  0  0
   10.5150   -3.0580    0.8900 H   0  0  0  0  0  0  0  0  0  0  0  0
    9.8000   -4.0990    0.0000 O   0  0  0  0  0  0  0  0  0  0  0  0
   10.0050   -5.0370    0.0000 H   0  0  0  0  0  0  0  0  0  0  0  0
   13.3720   -6.1620    0.0000 C   0  0  0  0  0  0  0  0  0  0  0  0
   14.0870   -6.5740    0.0000 O   0  0  0  0  0  0  0  0  0  0  0  0
   12.6580   -6.5740    0.0000 C   0  0  0  0  0  0  0  0  0  0  0  0
   11.8300   -5.8650    0.0000 H   0  0  0  0  0  0  0  0  0  0  0  0
   12.6000   -7.2010    0.8900 H   0  0  0  0  0  0  0  0  0  0  0  0
   12.6000   -7.2010   -0.8900 H   0  0  0  0  0  0  0  0  0  0  0  0
  1  2  1  6
  1  3  1  0
  1  5  1  0
  1 18  1  0
  3  4  1  0
  5  6  1  6
  5  7  1  0
  5  9  1  0
  7  8  1  0
  9 10  1  6
  9 17  1  0
  9 20  1  0
 11 12  1  6
 11 13  1  0
 11 17  1  0
 11 18  1  0
 13 14  1  0
 15 16  1  0
 15 18  1  0
 15 25  1  0
 18 19  1  0
 20 21  1  0
 20 22  1  0
 20 23  1  0
 23 24  1  0
 25 26  2  0
 25 27  1  0
 27 28  1  0
 27 29  1  0
 27 30  1  0
M  END
