# created with PyMOL 2.5.2
@<TRIPOS>MOLECULE
ChEBI
27 29 1                 
SMALL
USER_CHARGES
@<TRIPOS>ATOM
1	   N	10.205	-6.450	0.000	N.pl3	1	UNK0	0.000	
2	   C	9.485	-6.222	0.000	C.2	1	UNK0	0.000	
3	   C	9.571	-7.467	0.000	C.3	1	UNK0	0.000	
4	   C	10.647	-5.846	0.000	C.2	1	UNK0	0.000	
5	   C	9.485	-5.464	0.000	C.2	1	UNK0	0.000	
6	   N	8.826	-6.605	0.000	N.2	1	UNK0	0.000	
7	   O	8.960	-7.029	0.000	O.3	1	UNK0	0.000	
8	   C	9.340	-8.184	0.000	C.3	1	UNK0	0.000	
9	   N	10.209	-5.229	0.000	N.2	1	UNK0	0.000	
10	   C	8.826	-5.088	0.000	C.2	1	UNK0	0.000	
11	   C	8.178	-6.222	0.000	C.2	1	UNK0	0.000	
12	   C	8.357	-7.467	0.000	C.3	1	UNK0	0.000	
13	   C	8.585	-8.184	0.000	C.3	1	UNK0	0.000	
14	   O	9.778	-8.788	0.000	O.3	1	UNK0	0.000	
15	   N	8.178	-5.464	0.000	N.2	1	UNK0	0.000	
16	   N	8.826	-4.336	0.000	N.pl3	1	UNK0	0.000	
17	   C	7.647	-7.233	0.000	C.3	1	UNK0	0.000	
18	   O	8.143	-8.788	0.000	O.3	1	UNK0	0.000	
19	   O	7.495	-6.498	0.000	O.3	1	UNK0	0.000	
20	   P	6.740	-6.495	0.000	P.3	1	UNK0	0.000	
21	   O	5.995	-6.498	0.000	O.3	1	UNK0	0.000	
22	   O	6.740	-5.747	0.000	O.co2	1	UNK0	0.000	
23	   O	6.736	-7.247	0.000	O.co2	1	UNK0	0.000	
24	   S	5.240	-6.495	0.000	S.3	1	UNK0	0.000	
25	   O	5.240	-5.747	0.000	O.3	1	UNK0	0.000	
26	   O	4.492	-6.495	0.000	O.2	1	UNK0	0.000	
27	   O	5.236	-7.247	0.000	O.2	1	UNK0	0.000	
@<TRIPOS>BOND
1 1 2 1
2 1 4 1
3 2 5 2
4 2 6 1
5 1 3 1
6 3 7 1
7 3 8 1
8 4 9 2
9 5 9 1
10 5 10 1
11 6 11 2
12 7 12 1
13 8 13 1
14 8 14 1
15 10 15 2
16 10 16 1
17 11 15 1
18 12 13 1
19 12 17 1
20 13 18 1
21 17 19 1
22 19 20 1
23 20 21 1
24 20 22 1
25 20 23 2
26 21 24 1
27 24 25 1
28 24 26 2
29 24 27 2
@<TRIPOS>SUBSTRUCTURE
1	UNK0	1	GROUP	1 ****	UNK
