# created with PyMOL 2.4.0
@<TRIPOS>MOLECULE
ChEBI.****
40 42 1                 
SMALL
USER_CHARGES
@<TRIPOS>ATOM
1	   N	10.205	-6.450	0.000	N.pl3	1	UNK0	0.000	
2	   C	9.485	-6.222	0.000	C.2	1	UNK0	0.000	
3	   C	9.571	-7.467	0.000	C.3	1	UNK0	0.000	
4	   H	9.571	-7.467	-1.090	 H	1	UNK0	0.000	
5	   C	10.647	-5.846	0.000	C.2	1	UNK0	0.000	
6	   H	11.727	-5.854	0.000	 H	1	UNK0	0.000	
7	   C	9.485	-5.464	0.000	C.2	1	UNK0	0.000	
8	   N	8.826	-6.605	0.000	N.2	1	UNK0	0.000	
9	   O	8.960	-7.029	0.000	O.3	1	UNK0	0.000	
10	   C	9.340	-8.184	0.000	C.3	1	UNK0	0.000	
11	   H	9.340	-8.184	-1.090	 H	1	UNK0	0.000	
12	   N	10.209	-5.229	0.000	N.2	1	UNK0	0.000	
13	   C	8.826	-5.088	0.000	C.2	1	UNK0	0.000	
14	   C	8.178	-6.222	0.000	C.2	1	UNK0	0.000	
15	   H	7.240	-6.757	0.000	 H	1	UNK0	0.000	
16	   C	8.357	-7.467	0.000	C.3	1	UNK0	0.000	
17	   H	8.357	-7.467	1.090	 H	1	UNK0	0.000	
18	   C	8.585	-8.184	0.000	C.3	1	UNK0	0.000	
19	   H	8.585	-8.184	-1.090	 H	1	UNK0	0.000	
20	   O	9.778	-8.788	0.000	O.3	1	UNK0	0.000	
21	   H	9.307	-9.488	-0.458	 H	1	UNK0	0.000	
22	   N	8.178	-5.464	0.000	N.2	1	UNK0	0.000	
23	   N	8.826	-4.336	0.000	N.pl3	1	UNK0	0.000	
24	   H	7.951	-3.831	0.000	 H	1	UNK0	0.000	
25	   H	9.701	-3.831	0.000	 H	1	UNK0	0.000	
26	   C	7.647	-7.233	0.000	C.3	1	UNK0	0.000	
27	   H	7.177	-7.652	0.890	 H	1	UNK0	0.000	
28	   H	7.177	-7.652	-0.890	 H	1	UNK0	0.000	
29	   O	8.143	-8.788	0.000	O.3	1	UNK0	0.000	
30	   H	7.972	-9.022	0.915	 H	1	UNK0	0.000	
31	   O	7.495	-6.498	0.000	O.3	1	UNK0	0.000	
32	   P	6.740	-6.495	0.000	 P	1	UNK0	0.000	
33	   O	5.995	-6.498	0.000	O.3	1	UNK0	0.000	
34	   O	6.740	-5.747	0.000	O.2	1	UNK0	0.000	
35	   O	6.736	-7.247	0.000	O.2	1	UNK0	0.000	
36	   S	5.240	-6.495	0.000	S.3	1	UNK0	0.000	
37	   O	5.240	-5.747	0.000	O.3	1	UNK0	0.000	
38	   H	5.698	-5.457	-0.793	 H	1	UNK0	0.000	
39	   O	4.492	-6.495	0.000	O.2	1	UNK0	0.000	
40	   O	5.236	-7.247	0.000	O.2	1	UNK0	0.000	
@<TRIPOS>BOND
1 1 2 1
2 1 3 1
3 1 5 1
4 2 7 ar
5 2 8 ar
6 3 4 1
7 3 9 1
8 3 10 1
9 5 6 1
10 5 12 2
11 7 12 1
12 7 13 ar
13 8 14 ar
14 9 16 1
15 10 11 1
16 10 18 1
17 10 20 1
18 13 22 ar
19 13 23 1
20 14 15 1
21 14 22 ar
22 16 17 1
23 16 18 1
24 16 26 1
25 18 19 1
26 18 29 1
27 20 21 1
28 23 24 1
29 23 25 1
30 26 27 1
31 26 28 1
32 26 31 1
33 29 30 1
34 31 32 1
35 32 33 1
36 32 34 ar
37 32 35 ar
38 33 36 1
39 36 37 1
40 36 39 2
41 36 40 2
42 37 38 1
@<TRIPOS>SUBSTRUCTURE
1	UNK0	1	GROUP	1 ****	UNK
