ChEBI.****
  PyMOL2.5          3D                             0

 40 42  0  0  0  0  0  0  0  0999 V2000
    9.6298   -9.8582   -2.4250 N   0  0  0  1  0  0  0  0  0  0  0  0
    9.7296   -8.4908   -2.4096 C   0  0  0  1  0  0  0  0  0  0  0  0
    8.7219  -10.6939   -1.6151 C   0  0  0  1  0  0  0  0  0  0  0  0
    7.7070  -10.4455   -1.8456 H   0  0  0  1  0  0  0  0  0  0  0  0
   10.5413  -10.2840   -3.3419 C   0  0  0  1  0  0  0  0  0  0  0  0
   10.6792  -11.2898   -3.5678 H   0  0  0  1  0  0  0  0  0  0  0  0
   10.7291   -8.1775   -3.3405 C   0  0  0  1  0  0  0  0  0  0  0  0
    9.0392   -7.6294   -1.6611 N   0  0  0  1  0  0  0  0  0  0  0  0
    8.9533  -12.0475   -1.8865 O   0  0  0  1  0  0  0  0  0  0  0  0
    8.9902  -10.4578   -0.1203 C   0  0  0  1  0  0  0  0  0  0  0  0
    9.5684   -9.5706    0.0323 H   0  0  0  1  0  0  0  0  0  0  0  0
   11.2294   -9.3351   -3.9161 N   0  0  0  1  0  0  0  0  0  0  0  0
   11.0136   -6.8224   -3.4814 C   0  0  0  1  0  0  0  0  0  0  0  0
    9.4059   -6.3769   -1.9031 C   0  0  0  1  0  0  0  0  0  0  0  0
    8.9047   -5.6479   -1.3564 H   0  0  0  1  0  0  0  0  0  0  0  0
    9.2626  -12.7728   -0.6577 C   0  0  0  1  0  0  0  0  0  0  0  0
    8.3838  -13.2355   -0.2594 H   0  0  0  1  0  0  0  0  0  0  0  0
    9.7811  -11.7095    0.2831 C   0  0  0  1  0  0  0  0  0  0  0  0
   10.8316  -11.5582    0.1473 H   0  0  0  1  0  0  0  0  0  0  0  0
    7.7682  -10.3626    0.6132 O   0  0  0  1  0  0  0  0  0  0  0  0
    7.5012   -9.4424    0.6729 H   0  0  0  1  0  0  0  0  0  0  0  0
   10.3364   -5.9241   -2.7582 N   0  0  0  1  0  0  0  0  0  0  0  0
   11.9697   -6.3446   -4.3384 N   0  0  0  1  0  0  0  0  0  0  0  0
   12.1879   -5.3892   -4.3456 H   0  0  0  1  0  0  0  0  0  0  0  0
   12.4354   -6.9582   -4.9443 H   0  0  0  1  0  0  0  0  0  0  0  0
   10.3048  -13.8132   -0.9059 C   0  0  0  1  0  0  0  0  0  0  0  0
   10.6145  -14.2472    0.0218 H   0  0  0  1  0  0  0  0  0  0  0  0
   11.1493  -13.3737   -1.3942 H   0  0  0  1  0  0  0  0  0  0  0  0
    9.5218  -12.0608    1.6430 O   0  0  0  1  0  0  0  0  0  0  0  0
    8.5744  -12.1337    1.7801 H   0  0  0  1  0  0  0  0  0  0  0  0
    9.7186  -14.8288   -1.7537 O   0  0  0  1  0  0  0  0  0  0  0  0
   10.6195  -16.0800   -2.3126 P   0  0  0  1  0  0  0  0  0  0  0  0
    9.7358  -16.9336   -3.4526 O   0  0  0  1  0  0  0  0  0  0  0  0
   11.8630  -15.5632   -2.9267 O   0  0  0  1  0  0  0  0  0  0  0  0
   10.9855  -17.0668   -1.0810 O   0  5  0  1  0  0  0  0  0  0  0  0
    8.2419  -17.4618   -3.6552 S   0  0  0  1  0  0  0  0  0  0  0  0
    7.7420  -16.8335   -4.8622 O   0  0  0  1  0  0  0  0  0  0  0  0
    8.0159  -17.3451   -5.6269 H   0  0  0  1  0  0  0  0  0  0  0  0
    8.3307  -18.8972   -3.7890 O   0  0  0  1  0  0  0  0  0  0  0  0
    7.6050  -17.0126   -2.4562 O   0  0  0  1  0  0  0  0  0  0  0  0
  1  2  1  0  0  0  0
  1  3  1  0  0  0  0
  1  5  1  0  0  0  0
  2  7  2  0  0  0  0
  2  8  1  0  0  0  0
  3  4  1  0  0  0  0
  3  9  1  0  0  0  0
  3 10  1  0  0  0  0
  5  6  1  0  0  0  0
  5 12  2  0  0  0  0
  7 12  1  0  0  0  0
  7 13  1  0  0  0  0
  8 14  2  0  0  0  0
  9 16  1  0  0  0  0
 10 11  1  0  0  0  0
 10 18  1  0  0  0  0
 10 20  1  0  0  0  0
 13 22  2  0  0  0  0
 13 23  1  0  0  0  0
 14 15  1  0  0  0  0
 14 22  1  0  0  0  0
 16 17  1  0  0  0  0
 16 18  1  0  0  0  0
 16 26  1  0  0  0  0
 18 19  1  0  0  0  0
 18 29  1  0  0  0  0
 20 21  1  0  0  0  0
 23 24  1  0  0  0  0
 23 25  1  0  0  0  0
 26 27  1  0  0  0  0
 26 28  1  0  0  0  0
 26 31  1  0  0  0  0
 29 30  1  0  0  0  0
 31 32  1  0  0  0  0
 32 33  1  0  0  0  0
 32 34  2  0  0  0  0
 32 35  1  0  0  0  0
 33 36  1  0  0  0  0
 36 37  1  0  0  0  0
 36 39  2  0  0  0  0
 36 40  2  0  0  0  0
 37 38  1  0  0  0  0
M  END
> <ConfClashScore>
0 

> <ConfOneFourInteractionScore>
-0.977742 

> <ConfScore>
-0.366043 

> <ConfScorePBest>
0.0150985 

> <ConfTolerance>
0.767437 

$$$$
ChEBI.****
  PyMOL2.5          3D                             0

 40 42  0  0  0  0  0  0  0  0999 V2000
    9.6377   -9.8513   -2.4308 N   0  0  0  1  0  0  0  0  0  0  0  0
    9.7298   -8.4836   -2.4093 C   0  0  0  1  0  0  0  0  0  0  0  0
    8.7246  -10.7041   -1.6173 C   0  0  0  1  0  0  0  0  0  0  0  0
    7.7086  -10.4560   -1.8430 H   0  0  0  1  0  0  0  0  0  0  0  0
   10.5525  -10.2681   -3.3485 C   0  0  0  1  0  0  0  0  0  0  0  0
   10.6962  -11.2720   -3.5787 H   0  0  0  1  0  0  0  0  0  0  0  0
   10.7284   -8.1605   -3.3378 C   0  0  0  1  0  0  0  0  0  0  0  0
    9.0338   -7.6293   -1.6577 N   0  0  0  1  0  0  0  0  0  0  0  0
    8.9690  -12.0633   -1.8579 O   0  0  0  1  0  0  0  0  0  0  0  0
    9.0075  -10.5280   -0.1184 C   0  0  0  1  0  0  0  0  0  0  0  0
   10.0493  -10.3627    0.0608 H   0  0  0  1  0  0  0  0  0  0  0  0
   11.2358   -9.3127   -3.9179 N   0  0  0  1  0  0  0  0  0  0  0  0
   11.0054   -6.8033   -3.4725 C   0  0  0  1  0  0  0  0  0  0  0  0
    9.3937   -6.3737   -1.8939 C   0  0  0  1  0  0  0  0  0  0  0  0
    8.8878   -5.6499   -1.3446 H   0  0  0  1  0  0  0  0  0  0  0  0
    8.9074  -12.8469   -0.6449 C   0  0  0  1  0  0  0  0  0  0  0  0
    8.1503  -13.5991   -0.7217 H   0  0  0  1  0  0  0  0  0  0  0  0
    8.5593  -11.8447    0.4597 C   0  0  0  1  0  0  0  0  0  0  0  0
    9.0897  -12.0682    1.3618 H   0  0  0  1  0  0  0  0  0  0  0  0
    8.2525   -9.4437    0.4242 O   0  0  0  1  0  0  0  0  0  0  0  0
    7.3281   -9.6956    0.4848 H   0  0  0  1  0  0  0  0  0  0  0  0
   10.3225   -5.9119   -2.7460 N   0  0  0  1  0  0  0  0  0  0  0  0
   11.9712   -6.3704   -4.3424 N   0  0  0  1  0  0  0  0  0  0  0  0
   12.5594   -7.0184   -4.7835 H   0  0  0  1  0  0  0  0  0  0  0  0
   12.0739   -5.4128   -4.5236 H   0  0  0  1  0  0  0  0  0  0  0  0
   10.2256  -13.4927   -0.3704 C   0  0  0  1  0  0  0  0  0  0  0  0
   10.2368  -13.8902    0.6230 H   0  0  0  1  0  0  0  0  0  0  0  0
   11.0121  -12.7750   -0.4768 H   0  0  0  1  0  0  0  0  0  0  0  0
    7.1552  -11.8378    0.7214 O   0  0  0  1  0  0  0  0  0  0  0  0
    6.7061  -11.3225    0.0474 H   0  0  0  1  0  0  0  0  0  0  0  0
   10.3999  -14.5610   -1.3306 O   0  0  0  1  0  0  0  0  0  0  0  0
   11.8094  -15.3952   -1.4135 P   0  0  0  1  0  0  0  0  0  0  0  0
   11.5359  -16.6088   -2.5366 O   0  0  0  1  0  0  0  0  0  0  0  0
   12.9587  -14.5240   -1.7461 O   0  0  0  1  0  0  0  0  0  0  0  0
   12.1062  -16.0470    0.0396 O   0  5  0  1  0  0  0  0  0  0  0  0
   12.2977  -17.8719   -3.1325 S   0  0  0  1  0  0  0  0  0  0  0  0
   12.7119  -17.2314   -4.3294 O   0  0  0  1  0  0  0  0  0  0  0  0
   13.3008  -16.5038   -4.1163 H   0  0  0  1  0  0  0  0  0  0  0  0
   13.3418  -18.1888   -2.2317 O   0  0  0  1  0  0  0  0  0  0  0  0
   11.3731  -18.9235   -3.3460 O   0  0  0  1  0  0  0  0  0  0  0  0
  1  2  1  0  0  0  0
  1  3  1  0  0  0  0
  1  5  1  0  0  0  0
  2  7  2  0  0  0  0
  2  8  1  0  0  0  0
  3  4  1  0  0  0  0
  3  9  1  0  0  0  0
  3 10  1  0  0  0  0
  5  6  1  0  0  0  0
  5 12  2  0  0  0  0
  7 12  1  0  0  0  0
  7 13  1  0  0  0  0
  8 14  2  0  0  0  0
  9 16  1  0  0  0  0
 10 11  1  0  0  0  0
 10 18  1  0  0  0  0
 10 20  1  0  0  0  0
 13 22  2  0  0  0  0
 13 23  1  0  0  0  0
 14 15  1  0  0  0  0
 14 22  1  0  0  0  0
 16 17  1  0  0  0  0
 16 18  1  0  0  0  0
 16 26  1  0  0  0  0
 18 19  1  0  0  0  0
 18 29  1  0  0  0  0
 20 21  1  0  0  0  0
 23 24  1  0  0  0  0
 23 25  1  0  0  0  0
 26 27  1  0  0  0  0
 26 28  1  0  0  0  0
 26 31  1  0  0  0  0
 29 30  1  0  0  0  0
 31 32  1  0  0  0  0
 32 33  1  0  0  0  0
 32 34  2  0  0  0  0
 32 35  1  0  0  0  0
 33 36  1  0  0  0  0
 36 37  1  0  0  0  0
 36 39  2  0  0  0  0
 36 40  2  0  0  0  0
 37 38  1  0  0  0  0
M  END
> <ConfClashScore>
0 

> <ConfOneFourInteractionScore>
-0.977742 

> <ConfScore>
-0.35859 

> <ConfScorePBest>
0.0149955 

> <ConfTolerance>
0.752624 

$$$$
ChEBI.****
  PyMOL2.5          3D                             0

 40 42  0  0  0  0  0  0  0  0999 V2000
    9.6313   -9.8660   -2.4084 N   0  0  0  1  0  0  0  0  0  0  0  0
    9.7377   -8.4992   -2.3976 C   0  0  0  1  0  0  0  0  0  0  0  0
    8.6660  -10.7326   -1.6735 C   0  0  0  1  0  0  0  0  0  0  0  0
    8.8871  -11.7607   -1.8707 H   0  0  0  1  0  0  0  0  0  0  0  0
   10.5317  -10.2987   -3.3330 C   0  0  0  1  0  0  0  0  0  0  0  0
   10.6625  -11.3057   -3.5576 H   0  0  0  1  0  0  0  0  0  0  0  0
   10.7295   -8.1930   -3.3391 C   0  0  0  1  0  0  0  0  0  0  0  0
    9.0589   -7.6325   -1.6446 N   0  0  0  1  0  0  0  0  0  0  0  0
    8.7544  -10.4828   -0.2990 O   0  0  0  1  0  0  0  0  0  0  0  0
    7.2313  -10.4122   -2.1220 C   0  0  0  1  0  0  0  0  0  0  0  0
    7.2285   -9.8477   -3.0310 H   0  0  0  1  0  0  0  0  0  0  0  0
   11.2187   -9.3545   -3.9164 N   0  0  0  1  0  0  0  0  0  0  0  0
   11.0191   -6.8397   -3.4864 C   0  0  0  1  0  0  0  0  0  0  0  0
    9.4292   -6.3824   -1.8935 C   0  0  0  1  0  0  0  0  0  0  0  0
    8.9367   -5.6496   -1.3439 H   0  0  0  1  0  0  0  0  0  0  0  0
    7.4498  -10.1109    0.2410 C   0  0  0  1  0  0  0  0  0  0  0  0
    6.9548  -10.9635    0.6568 H   0  0  0  1  0  0  0  0  0  0  0  0
    6.6894   -9.5796   -0.9524 C   0  0  0  1  0  0  0  0  0  0  0  0
    6.8880   -8.5386   -1.0998 H   0  0  0  1  0  0  0  0  0  0  0  0
    6.4689  -11.6068   -2.3002 O   0  0  0  1  0  0  0  0  0  0  0  0
    5.8830  -11.5037   -3.0537 H   0  0  0  1  0  0  0  0  0  0  0  0
   10.3534   -5.9363   -2.7588 N   0  0  0  1  0  0  0  0  0  0  0  0
   11.9695   -6.3033   -4.3482 N   0  0  0  1  0  0  0  0  0  0  0  0
   12.5202   -6.8964   -4.9007 H   0  0  0  1  0  0  0  0  0  0  0  0
   12.0887   -5.3321   -4.4029 H   0  0  0  1  0  0  0  0  0  0  0  0
    7.5942   -9.0428    1.3033 C   0  0  0  1  0  0  0  0  0  0  0  0
    6.6319   -8.7292    1.6505 H   0  0  0  1  0  0  0  0  0  0  0  0
    8.1260   -8.1995    0.9148 H   0  0  0  1  0  0  0  0  0  0  0  0
    5.2841   -9.7788   -0.7921 O   0  0  0  1  0  0  0  0  0  0  0  0
    4.8109   -9.0218   -1.1449 H   0  0  0  1  0  0  0  0  0  0  0  0
    8.3424   -9.6602    2.3781 O   0  0  0  1  0  0  0  0  0  0  0  0
    8.9474   -8.8183    3.6488 P   0  0  0  1  0  0  0  0  0  0  0  0
   10.0608   -9.7966    4.4314 O   0  0  0  1  0  0  0  0  0  0  0  0
    9.6716   -7.5954    3.2358 O   0  0  0  1  0  0  0  0  0  0  0  0
    7.7379   -8.5105    4.6816 O   0  5  0  1  0  0  0  0  0  0  0  0
   10.0635  -11.0994    5.3769 S   0  0  0  1  0  0  0  0  0  0  0  0
    8.6846  -11.5333    5.2668 O   0  0  0  1  0  0  0  0  0  0  0  0
    8.6351  -12.3012    4.6928 H   0  0  0  1  0  0  0  0  0  0  0  0
   10.9967  -12.0153    4.7928 O   0  0  0  1  0  0  0  0  0  0  0  0
   10.4307  -10.6387    6.6917 O   0  0  0  1  0  0  0  0  0  0  0  0
  1  2  1  0  0  0  0
  1  3  1  0  0  0  0
  1  5  1  0  0  0  0
  2  7  2  0  0  0  0
  2  8  1  0  0  0  0
  3  4  1  0  0  0  0
  3  9  1  0  0  0  0
  3 10  1  0  0  0  0
  5  6  1  0  0  0  0
  5 12  2  0  0  0  0
  7 12  1  0  0  0  0
  7 13  1  0  0  0  0
  8 14  2  0  0  0  0
  9 16  1  0  0  0  0
 10 11  1  0  0  0  0
 10 18  1  0  0  0  0
 10 20  1  0  0  0  0
 13 22  2  0  0  0  0
 13 23  1  0  0  0  0
 14 15  1  0  0  0  0
 14 22  1  0  0  0  0
 16 17  1  0  0  0  0
 16 18  1  0  0  0  0
 16 26  1  0  0  0  0
 18 19  1  0  0  0  0
 18 29  1  0  0  0  0
 20 21  1  0  0  0  0
 23 24  1  0  0  0  0
 23 25  1  0  0  0  0
 26 27  1  0  0  0  0
 26 28  1  0  0  0  0
 26 31  1  0  0  0  0
 29 30  1  0  0  0  0
 31 32  1  0  0  0  0
 32 33  1  0  0  0  0
 32 34  2  0  0  0  0
 32 35  1  0  0  0  0
 33 36  1  0  0  0  0
 36 37  1  0  0  0  0
 36 39  2  0  0  0  0
 36 40  2  0  0  0  0
 37 38  1  0  0  0  0
M  END
> <ConfClashScore>
0 

> <ConfOneFourInteractionScore>
-0.977742 

> <ConfScore>
-0.350524 

> <ConfScorePBest>
0.0148925 

> <ConfTolerance>
0.936162 

$$$$
ChEBI.****
  PyMOL2.5          3D                             0

 40 42  0  0  0  0  0  0  0  0999 V2000
    9.6270   -9.8416   -2.4242 N   0  0  0  1  0  0  0  0  0  0  0  0
    9.7259   -8.4743   -2.4039 C   0  0  0  1  0  0  0  0  0  0  0  0
    8.7652  -10.7636   -1.6659 C   0  0  0  1  0  0  0  0  0  0  0  0
    7.7400  -10.4916   -1.8068 H   0  0  0  1  0  0  0  0  0  0  0  0
   10.5374  -10.2636   -3.3439 C   0  0  0  1  0  0  0  0  0  0  0  0
   10.6755  -11.2684   -3.5737 H   0  0  0  1  0  0  0  0  0  0  0  0
   10.7238   -8.1569   -3.3352 C   0  0  0  1  0  0  0  0  0  0  0  0
    9.0361   -7.6160   -1.6512 N   0  0  0  1  0  0  0  0  0  0  0  0
    8.9800  -12.0818   -2.0805 O   0  0  0  1  0  0  0  0  0  0  0  0
    9.1273  -10.7274   -0.1727 C   0  0  0  1  0  0  0  0  0  0  0  0
    9.4677   -9.7557    0.1186 H   0  0  0  1  0  0  0  0  0  0  0  0
   11.2240   -9.3120   -3.9157 N   0  0  0  1  0  0  0  0  0  0  0  0
   11.0072   -6.8011   -3.4717 C   0  0  0  1  0  0  0  0  0  0  0  0
    9.4017   -6.3624   -1.8893 C   0  0  0  1  0  0  0  0  0  0  0  0
    8.9007   -5.6356   -1.3392 H   0  0  0  1  0  0  0  0  0  0  0  0
    9.8748  -12.7670   -1.1862 C   0  0  0  1  0  0  0  0  0  0  0  0
    9.3902  -13.6202   -0.7594 H   0  0  0  1  0  0  0  0  0  0  0  0
   10.2451  -11.7508   -0.0778 C   0  0  0  1  0  0  0  0  0  0  0  0
   11.1968  -11.3008   -0.2699 H   0  0  0  1  0  0  0  0  0  0  0  0
    8.0129  -11.1048    0.6371 O   0  0  0  1  0  0  0  0  0  0  0  0
    7.2313  -11.1911    0.0865 H   0  0  0  1  0  0  0  0  0  0  0  0
   10.3306   -5.9059   -2.7441 N   0  0  0  1  0  0  0  0  0  0  0  0
   11.9690   -6.3755   -4.3408 N   0  0  0  1  0  0  0  0  0  0  0  0
   12.5320   -7.0284   -4.8068 H   0  0  0  1  0  0  0  0  0  0  0  0
   12.0969   -5.4168   -4.4990 H   0  0  0  1  0  0  0  0  0  0  0  0
   11.0869  -13.1990   -1.9085 C   0  0  0  1  0  0  0  0  0  0  0  0
   11.7327  -13.7200   -1.2330 H   0  0  0  1  0  0  0  0  0  0  0  0
   11.5927  -12.3385   -2.2942 H   0  0  0  1  0  0  0  0  0  0  0  0
   10.2634  -12.3748    1.2069 O   0  0  0  1  0  0  0  0  0  0  0  0
    9.4301  -12.2112    1.6545 H   0  0  0  1  0  0  0  0  0  0  0  0
   10.7360  -14.0764   -3.0044 O   0  0  0  1  0  0  0  0  0  0  0  0
   11.8766  -14.6014   -4.0594 P   0  0  0  1  0  0  0  0  0  0  0  0
   12.9530  -15.5542   -3.1978 O   0  0  0  1  0  0  0  0  0  0  0  0
   11.4179  -15.3692   -5.2385 O   0  0  0  1  0  0  0  0  0  0  0  0
   12.8149  -13.3619   -4.5152 O   0  5  0  1  0  0  0  0  0  0  0  0
   13.3778  -17.1139   -3.0976 S   0  0  0  1  0  0  0  0  0  0  0  0
   12.5024  -17.6627   -4.0930 O   0  0  0  1  0  0  0  0  0  0  0  0
   11.7308  -17.0992   -4.1870 H   0  0  0  1  0  0  0  0  0  0  0  0
   14.7391  -17.1537   -3.4177 O   0  0  0  1  0  0  0  0  0  0  0  0
   13.0695  -17.5165   -1.7731 O   0  0  0  1  0  0  0  0  0  0  0  0
  1  2  1  0  0  0  0
  1  3  1  0  0  0  0
  1  5  1  0  0  0  0
  2  7  2  0  0  0  0
  2  8  1  0  0  0  0
  3  4  1  0  0  0  0
  3  9  1  0  0  0  0
  3 10  1  0  0  0  0
  5  6  1  0  0  0  0
  5 12  2  0  0  0  0
  7 12  1  0  0  0  0
  7 13  1  0  0  0  0
  8 14  2  0  0  0  0
  9 16  1  0  0  0  0
 10 11  1  0  0  0  0
 10 18  1  0  0  0  0
 10 20  1  0  0  0  0
 13 22  2  0  0  0  0
 13 23  1  0  0  0  0
 14 15  1  0  0  0  0
 14 22  1  0  0  0  0
 16 17  1  0  0  0  0
 16 18  1  0  0  0  0
 16 26  1  0  0  0  0
 18 19  1  0  0  0  0
 18 29  1  0  0  0  0
 20 21  1  0  0  0  0
 23 24  1  0  0  0  0
 23 25  1  0  0  0  0
 26 27  1  0  0  0  0
 26 28  1  0  0  0  0
 26 31  1  0  0  0  0
 29 30  1  0  0  0  0
 31 32  1  0  0  0  0
 32 33  1  0  0  0  0
 32 34  2  0  0  0  0
 32 35  1  0  0  0  0
 33 36  1  0  0  0  0
 36 37  1  0  0  0  0
 36 39  2  0  0  0  0
 36 40  2  0  0  0  0
 37 38  1  0  0  0  0
M  END
> <ConfClashScore>
0 

> <ConfOneFourInteractionScore>
-0.97979 

> <ConfScore>
-0.345282 

> <ConfScorePBest>
0.0147895 

> <ConfTolerance>
0.799703 

$$$$
ChEBI.****
  PyMOL2.5          3D                             0

 40 42  0  0  0  0  0  0  0  0999 V2000
    9.6086   -9.8609   -2.4557 N   0  0  0  1  0  0  0  0  0  0  0  0
    9.7164   -8.4945   -2.4264 C   0  0  0  1  0  0  0  0  0  0  0  0
    8.7893  -10.6708   -1.5465 C   0  0  0  1  0  0  0  0  0  0  0  0
    7.7531  -10.4985   -1.7503 H   0  0  0  1  0  0  0  0  0  0  0  0
   10.5228  -10.2834   -3.3714 C   0  0  0  1  0  0  0  0  0  0  0  0
   10.6560  -11.2877   -3.6063 H   0  0  0  1  0  0  0  0  0  0  0  0
   10.7230   -8.1781   -3.3486 C   0  0  0  1  0  0  0  0  0  0  0  0
    9.0269   -7.6362   -1.6734 N   0  0  0  1  0  0  0  0  0  0  0  0
    9.0950  -12.0275   -1.6944 O   0  0  0  1  0  0  0  0  0  0  0  0
    9.1113  -10.3235   -0.0843 C   0  0  0  1  0  0  0  0  0  0  0  0
    9.3839   -9.2938    0.0169 H   0  0  0  1  0  0  0  0  0  0  0  0
   11.2198   -9.3330   -3.9325 N   0  0  0  1  0  0  0  0  0  0  0  0
   11.0162   -6.8234   -3.4747 C   0  0  0  1  0  0  0  0  0  0  0  0
    9.4023   -6.3836   -1.9012 C   0  0  0  1  0  0  0  0  0  0  0  0
    8.9022   -5.6569   -1.3503 H   0  0  0  1  0  0  0  0  0  0  0  0
   10.0078  -12.4673   -0.6731 C   0  0  0  1  0  0  0  0  0  0  0  0
    9.5662  -13.2518   -0.0947 H   0  0  0  1  0  0  0  0  0  0  0  0
   10.2873  -11.2343    0.2214 C   0  0  0  1  0  0  0  0  0  0  0  0
   11.2139  -10.7689   -0.0426 H   0  0  0  1  0  0  0  0  0  0  0  0
    8.0025  -10.6094    0.7695 O   0  0  0  1  0  0  0  0  0  0  0  0
    8.2561  -10.4632    1.6838 H   0  0  0  1  0  0  0  0  0  0  0  0
   10.3403   -5.9281   -2.7466 N   0  0  0  1  0  0  0  0  0  0  0  0
   11.9800   -6.3430   -4.3217 N   0  0  0  1  0  0  0  0  0  0  0  0
   12.4990   -6.9631   -4.8753 H   0  0  0  1  0  0  0  0  0  0  0  0
   12.1503   -5.3794   -4.3738 H   0  0  0  1  0  0  0  0  0  0  0  0
   11.2768  -12.9564   -1.2899 C   0  0  0  1  0  0  0  0  0  0  0  0
   11.9499  -13.2858   -0.5262 H   0  0  0  1  0  0  0  0  0  0  0  0
   11.7339  -12.1709   -1.8546 H   0  0  0  1  0  0  0  0  0  0  0  0
   10.3121  -11.5961    1.6029 O   0  0  0  1  0  0  0  0  0  0  0  0
   10.2256  -10.8068    2.1425 H   0  0  0  1  0  0  0  0  0  0  0  0
   10.9435  -14.0612   -2.1630 O   0  0  0  1  0  0  0  0  0  0  0  0
   12.0631  -14.6977   -3.1784 P   0  0  0  1  0  0  0  0  0  0  0  0
   11.3673  -15.7797   -4.2527 O   0  0  0  1  0  0  0  0  0  0  0  0
   12.7003  -13.6725   -4.0348 O   0  0  0  1  0  0  0  0  0  0  0  0
   13.0732  -15.5705   -2.2606 O   0  5  0  1  0  0  0  0  0  0  0  0
   11.3807  -17.3724   -4.5467 S   0  0  0  1  0  0  0  0  0  0  0  0
   11.1453  -17.8606   -3.2189 O   0  0  0  1  0  0  0  0  0  0  0  0
   11.3408  -17.1681   -2.5834 H   0  0  0  1  0  0  0  0  0  0  0  0
   10.3385  -17.5958   -5.4551 O   0  0  0  1  0  0  0  0  0  0  0  0
   12.6745  -17.6642   -5.0473 O   0  0  0  1  0  0  0  0  0  0  0  0
  1  2  1  0  0  0  0
  1  3  1  0  0  0  0
  1  5  1  0  0  0  0
  2  7  2  0  0  0  0
  2  8  1  0  0  0  0
  3  4  1  0  0  0  0
  3  9  1  0  0  0  0
  3 10  1  0  0  0  0
  5  6  1  0  0  0  0
  5 12  2  0  0  0  0
  7 12  1  0  0  0  0
  7 13  1  0  0  0  0
  8 14  2  0  0  0  0
  9 16  1  0  0  0  0
 10 11  1  0  0  0  0
 10 18  1  0  0  0  0
 10 20  1  0  0  0  0
 13 22  2  0  0  0  0
 13 23  1  0  0  0  0
 14 15  1  0  0  0  0
 14 22  1  0  0  0  0
 16 17  1  0  0  0  0
 16 18  1  0  0  0  0
 16 26  1  0  0  0  0
 18 19  1  0  0  0  0
 18 29  1  0  0  0  0
 20 21  1  0  0  0  0
 23 24  1  0  0  0  0
 23 25  1  0  0  0  0
 26 27  1  0  0  0  0
 26 28  1  0  0  0  0
 26 31  1  0  0  0  0
 29 30  1  0  0  0  0
 31 32  1  0  0  0  0
 32 33  1  0  0  0  0
 32 34  2  0  0  0  0
 32 35  1  0  0  0  0
 33 36  1  0  0  0  0
 36 37  1  0  0  0  0
 36 39  2  0  0  0  0
 36 40  2  0  0  0  0
 37 38  1  0  0  0  0
M  END
> <ConfClashScore>
0 

> <ConfOneFourInteractionScore>
-0.977742 

> <ConfScore>
-0.341913 

> <ConfScorePBest>
0.0146865 

> <ConfTolerance>
0.79569 

$$$$
ChEBI.****
  PyMOL2.5          3D                             0

 40 42  0  0  0  0  0  0  0  0999 V2000
    9.6211   -9.8543   -2.4282 N   0  0  0  1  0  0  0  0  0  0  0  0
    9.7278   -8.4875   -2.4070 C   0  0  0  1  0  0  0  0  0  0  0  0
    8.7403  -10.7288   -1.6487 C   0  0  0  1  0  0  0  0  0  0  0  0
    9.3217  -11.2828   -0.9417 H   0  0  0  1  0  0  0  0  0  0  0  0
   10.5265  -10.2804   -3.3510 C   0  0  0  1  0  0  0  0  0  0  0  0
   10.6584  -11.2858   -3.5821 H   0  0  0  1  0  0  0  0  0  0  0  0
   10.7247   -8.1748   -3.3408 C   0  0  0  1  0  0  0  0  0  0  0  0
    9.0450   -7.6262   -1.6515 N   0  0  0  1  0  0  0  0  0  0  0  0
    7.7642   -9.9739   -0.9904 O   0  0  0  1  0  0  0  0  0  0  0  0
    7.9770  -11.6848   -2.5790 C   0  0  0  1  0  0  0  0  0  0  0  0
    8.5632  -11.9382   -3.4375 H   0  0  0  1  0  0  0  0  0  0  0  0
   11.2168   -9.3322   -3.9239 N   0  0  0  1  0  0  0  0  0  0  0  0
   11.0153   -6.8206   -3.4768 C   0  0  0  1  0  0  0  0  0  0  0  0
    9.4168   -6.3744   -1.8893 C   0  0  0  1  0  0  0  0  0  0  0  0
    8.9215   -5.6454   -1.3372 H   0  0  0  1  0  0  0  0  0  0  0  0
    6.5229   -9.9849   -1.7176 C   0  0  0  1  0  0  0  0  0  0  0  0
    5.7438  -10.4011   -1.1138 H   0  0  0  1  0  0  0  0  0  0  0  0
    6.7593  -10.8657   -2.9693 C   0  0  0  1  0  0  0  0  0  0  0  0
    6.9597  -10.2643   -3.8313 H   0  0  0  1  0  0  0  0  0  0  0  0
    7.5968  -12.8781   -1.8921 O   0  0  0  1  0  0  0  0  0  0  0  0
    8.2941  -13.5324   -1.9765 H   0  0  0  1  0  0  0  0  0  0  0  0
   10.3458   -5.9222   -2.7464 N   0  0  0  1  0  0  0  0  0  0  0  0
   11.9700   -6.3435   -4.3358 N   0  0  0  1  0  0  0  0  0  0  0  0
   12.4866   -6.9661   -4.8889 H   0  0  0  1  0  0  0  0  0  0  0  0
   12.1364   -5.3797   -4.3971 H   0  0  0  1  0  0  0  0  0  0  0  0
    6.1504   -8.5973   -2.1250 C   0  0  0  1  0  0  0  0  0  0  0  0
    5.2040   -8.6058   -2.6243 H   0  0  0  1  0  0  0  0  0  0  0  0
    6.8961   -8.1972   -2.7798 H   0  0  0  1  0  0  0  0  0  0  0  0
    5.6341  -11.7071   -3.2261 O   0  0  0  1  0  0  0  0  0  0  0  0
    5.3098  -11.5461   -4.1152 H   0  0  0  1  0  0  0  0  0  0  0  0
    6.0674   -7.8001   -0.9329 O   0  0  0  1  0  0  0  0  0  0  0  0
    5.9385   -6.1657   -0.8926 P   0  0  0  1  0  0  0  0  0  0  0  0
    6.2858   -5.7502    0.6935 O   0  0  0  1  0  0  0  0  0  0  0  0
    6.9652   -5.5810   -1.7839 O   0  0  0  1  0  0  0  0  0  0  0  0
    4.4027   -5.7119   -1.1374 O   0  5  0  1  0  0  0  0  0  0  0  0
    6.3155   -4.3870    1.6425 S   0  0  0  1  0  0  0  0  0  0  0  0
    4.8495   -4.1194    1.6141 O   0  0  0  1  0  0  0  0  0  0  0  0
    4.4131   -4.6545    2.2809 H   0  0  0  1  0  0  0  0  0  0  0  0
    6.8568   -4.7239    2.8265 O   0  0  0  1  0  0  0  0  0  0  0  0
    6.8887   -3.4314    0.7625 O   0  0  0  1  0  0  0  0  0  0  0  0
  1  2  1  0  0  0  0
  1  3  1  0  0  0  0
  1  5  1  0  0  0  0
  2  7  2  0  0  0  0
  2  8  1  0  0  0  0
  3  4  1  0  0  0  0
  3  9  1  0  0  0  0
  3 10  1  0  0  0  0
  5  6  1  0  0  0  0
  5 12  2  0  0  0  0
  7 12  1  0  0  0  0
  7 13  1  0  0  0  0
  8 14  2  0  0  0  0
  9 16  1  0  0  0  0
 10 11  1  0  0  0  0
 10 18  1  0  0  0  0
 10 20  1  0  0  0  0
 13 22  2  0  0  0  0
 13 23  1  0  0  0  0
 14 15  1  0  0  0  0
 14 22  1  0  0  0  0
 16 17  1  0  0  0  0
 16 18  1  0  0  0  0
 16 26  1  0  0  0  0
 18 19  1  0  0  0  0
 18 29  1  0  0  0  0
 20 21  1  0  0  0  0
 23 24  1  0  0  0  0
 23 25  1  0  0  0  0
 26 27  1  0  0  0  0
 26 28  1  0  0  0  0
 26 31  1  0  0  0  0
 29 30  1  0  0  0  0
 31 32  1  0  0  0  0
 32 33  1  0  0  0  0
 32 34  2  0  0  0  0
 32 35  1  0  0  0  0
 33 36  1  0  0  0  0
 36 37  1  0  0  0  0
 36 39  2  0  0  0  0
 36 40  2  0  0  0  0
 37 38  1  0  0  0  0
M  END
> <ConfClashScore>
0 

> <ConfOneFourInteractionScore>
-0.977742 

> <ConfScore>
-0.336351 

> <ConfScorePBest>
0.0145835 

> <ConfTolerance>
0.925175 

$$$$
ChEBI.****
  PyMOL2.5          3D                             0

 40 42  0  0  0  0  0  0  0  0999 V2000
    9.6445   -9.8649   -2.4191 N   0  0  0  1  0  0  0  0  0  0  0  0
    9.7419   -8.4974   -2.4016 C   0  0  0  1  0  0  0  0  0  0  0  0
    8.6525  -10.6447   -1.6531 C   0  0  0  1  0  0  0  0  0  0  0  0
    8.5242  -10.2068   -0.6853 H   0  0  0  1  0  0  0  0  0  0  0  0
   10.5491  -10.2871   -3.3444 C   0  0  0  1  0  0  0  0  0  0  0  0
   10.6869  -11.2922   -3.5736 H   0  0  0  1  0  0  0  0  0  0  0  0
   10.7330   -8.1802   -3.3401 C   0  0  0  1  0  0  0  0  0  0  0  0
    9.0563   -7.6389   -1.6455 N   0  0  0  1  0  0  0  0  0  0  0  0
    7.4307  -10.7029   -2.3378 O   0  0  0  1  0  0  0  0  0  0  0  0
    9.0894  -12.1118   -1.5328 C   0  0  0  1  0  0  0  0  0  0  0  0
    9.6081  -12.4332   -2.4118 H   0  0  0  1  0  0  0  0  0  0  0  0
   11.2307   -9.3357   -3.9223 N   0  0  0  1  0  0  0  0  0  0  0  0
   11.0139   -6.8244   -3.4805 C   0  0  0  1  0  0  0  0  0  0  0  0
    9.4187   -6.3851   -1.8878 C   0  0  0  1  0  0  0  0  0  0  0  0
    8.9207   -5.6582   -1.3355 H   0  0  0  1  0  0  0  0  0  0  0  0
    6.8212  -12.0103   -2.2463 C   0  0  0  1  0  0  0  0  0  0  0  0
    5.8585  -11.9443   -1.7839 H   0  0  0  1  0  0  0  0  0  0  0  0
    7.7776  -12.8362   -1.3809 C   0  0  0  1  0  0  0  0  0  0  0  0
    7.8502  -13.8411   -1.7411 H   0  0  0  1  0  0  0  0  0  0  0  0
    9.9220  -12.3090   -0.3891 O   0  0  0  1  0  0  0  0  0  0  0  0
    9.4964  -12.9216    0.2153 H   0  0  0  1  0  0  0  0  0  0  0  0
   10.3412   -5.9288   -2.7497 N   0  0  0  1  0  0  0  0  0  0  0  0
   11.9619   -6.3430   -4.3444 N   0  0  0  1  0  0  0  0  0  0  0  0
   12.1222   -5.3783   -4.4080 H   0  0  0  1  0  0  0  0  0  0  0  0
   12.4797   -6.9633   -4.8989 H   0  0  0  1  0  0  0  0  0  0  0  0
    6.6822  -12.6200   -3.6023 C   0  0  0  1  0  0  0  0  0  0  0  0
    6.4734  -13.6655   -3.5121 H   0  0  0  1  0  0  0  0  0  0  0  0
    7.5863  -12.4829   -4.1579 H   0  0  0  1  0  0  0  0  0  0  0  0
    7.3538  -12.8480   -0.0170 O   0  0  0  1  0  0  0  0  0  0  0  0
    6.8433  -12.0561    0.1668 H   0  0  0  1  0  0  0  0  0  0  0  0
    5.5860  -11.9547   -4.2729 O   0  0  0  1  0  0  0  0  0  0  0  0
    5.1361  -12.2970   -5.8124 P   0  0  0  1  0  0  0  0  0  0  0  0
    3.8129  -11.3734   -6.2652 O   0  0  0  1  0  0  0  0  0  0  0  0
    6.1788  -12.1019   -6.8444 O   0  0  0  1  0  0  0  0  0  0  0  0
    4.6438  -13.8400   -5.7778 O   0  5  0  1  0  0  0  0  0  0  0  0
    3.2882  -10.7251   -7.4737 S   0  0  0  1  0  0  0  0  0  0  0  0
    3.8319  -11.4582   -8.6520 O   0  0  0  1  0  0  0  0  0  0  0  0
    3.1969  -12.1183   -8.9397 H   0  0  0  1  0  0  0  0  0  0  0  0
    1.8119  -10.7880   -7.4847 O   0  0  0  1  0  0  0  0  0  0  0  0
    3.7355   -9.3300   -7.5722 O   0  0  0  1  0  0  0  0  0  0  0  0
  1  2  1  0  0  0  0
  1  3  1  0  0  0  0
  1  5  1  0  0  0  0
  2  7  2  0  0  0  0
  2  8  1  0  0  0  0
  3  4  1  0  0  0  0
  3  9  1  0  0  0  0
  3 10  1  0  0  0  0
  5  6  1  0  0  0  0
  5 12  2  0  0  0  0
  7 12  1  0  0  0  0
  7 13  1  0  0  0  0
  8 14  2  0  0  0  0
  9 16  1  0  0  0  0
 10 11  1  0  0  0  0
 10 18  1  0  0  0  0
 10 20  1  0  0  0  0
 13 22  2  0  0  0  0
 13 23  1  0  0  0  0
 14 15  1  0  0  0  0
 14 22  1  0  0  0  0
 16 17  1  0  0  0  0
 16 18  1  0  0  0  0
 16 26  1  0  0  0  0
 18 19  1  0  0  0  0
 18 29  1  0  0  0  0
 20 21  1  0  0  0  0
 23 24  1  0  0  0  0
 23 25  1  0  0  0  0
 26 27  1  0  0  0  0
 26 28  1  0  0  0  0
 26 31  1  0  0  0  0
 29 30  1  0  0  0  0
 31 32  1  0  0  0  0
 32 33  1  0  0  0  0
 32 34  2  0  0  0  0
 32 35  1  0  0  0  0
 33 36  1  0  0  0  0
 36 37  1  0  0  0  0
 36 39  2  0  0  0  0
 36 40  2  0  0  0  0
 37 38  1  0  0  0  0
M  END
> <ConfClashScore>
0 

> <ConfOneFourInteractionScore>
-0.969304 

> <ConfScore>
-0.334886 

> <ConfScorePBest>
0.0144805 

> <ConfTolerance>
0.89252 

$$$$
ChEBI.****
  PyMOL2.5          3D                             0

 40 42  0  0  0  0  0  0  0  0999 V2000
    9.6430   -9.8532   -2.4266 N   0  0  0  1  0  0  0  0  0  0  0  0
    9.7399   -8.4859   -2.3986 C   0  0  0  1  0  0  0  0  0  0  0  0
    8.6713  -10.6896   -1.6843 C   0  0  0  1  0  0  0  0  0  0  0  0
    7.6798  -10.3291   -1.8630 H   0  0  0  1  0  0  0  0  0  0  0  0
   10.5453  -10.2678   -3.3576 C   0  0  0  1  0  0  0  0  0  0  0  0
   10.6828  -11.2709   -3.5951 H   0  0  0  1  0  0  0  0  0  0  0  0
   10.7283   -8.1609   -3.3373 C   0  0  0  1  0  0  0  0  0  0  0  0
    9.0559   -7.6336   -1.6339 N   0  0  0  1  0  0  0  0  0  0  0  0
    8.7748  -12.0218   -2.1016 O   0  0  0  1  0  0  0  0  0  0  0  0
    8.9815  -10.6389   -0.1799 C   0  0  0  1  0  0  0  0  0  0  0  0
    9.6401   -9.8278    0.0509 H   0  0  0  1  0  0  0  0  0  0  0  0
   11.2248   -9.3115   -3.9299 N   0  0  0  1  0  0  0  0  0  0  0  0
   11.0082   -6.8039   -3.4678 C   0  0  0  1  0  0  0  0  0  0  0  0
    9.4171   -6.3778   -1.8675 C   0  0  0  1  0  0  0  0  0  0  0  0
    8.9203   -5.6555   -1.3080 H   0  0  0  1  0  0  0  0  0  0  0  0
    9.0348  -12.8985   -0.9634 C   0  0  0  1  0  0  0  0  0  0  0  0
    8.1236  -13.3211   -0.5947 H   0  0  0  1  0  0  0  0  0  0  0  0
    9.6613  -11.9917    0.0709 C   0  0  0  1  0  0  0  0  0  0  0  0
   10.7191  -11.9206   -0.0735 H   0  0  0  1  0  0  0  0  0  0  0  0
    7.7841  -10.5143    0.5887 O   0  0  0  1  0  0  0  0  0  0  0  0
    7.6722  -11.2947    1.1364 H   0  0  0  1  0  0  0  0  0  0  0  0
   10.3371   -5.9144   -2.7282 N   0  0  0  1  0  0  0  0  0  0  0  0
   11.9649   -6.3693   -4.3469 N   0  0  0  1  0  0  0  0  0  0  0  0
   12.0979   -5.4091   -4.4911 H   0  0  0  1  0  0  0  0  0  0  0  0
   12.5162   -7.0186   -4.8315 H   0  0  0  1  0  0  0  0  0  0  0  0
    9.9634  -13.9819   -1.3397 C   0  0  0  1  0  0  0  0  0  0  0  0
   10.3208  -14.4632   -0.4535 H   0  0  0  1  0  0  0  0  0  0  0  0
   10.7893  -13.5667   -1.8785 H   0  0  0  1  0  0  0  0  0  0  0  0
    9.3915  -12.4605    1.3897 O   0  0  0  1  0  0  0  0  0  0  0  0
    9.1083  -11.7261    1.9392 H   0  0  0  1  0  0  0  0  0  0  0  0
    9.2920  -14.9558   -2.1731 O   0  0  0  1  0  0  0  0  0  0  0  0
   10.0719  -16.3047   -2.6848 P   0  0  0  1  0  0  0  0  0  0  0  0
   10.7421  -16.9546   -1.2929 O   0  0  0  1  0  0  0  0  0  0  0  0
    9.0237  -17.2074   -3.2108 O   0  0  0  1  0  0  0  0  0  0  0  0
   11.2360  -15.9189   -3.7434 O   0  5  0  1  0  0  0  0  0  0  0  0
   11.7318  -18.2019   -0.8679 S   0  0  0  1  0  0  0  0  0  0  0  0
   11.7144  -18.2137    0.5638 O   0  0  0  1  0  0  0  0  0  0  0  0
   11.4595  -17.3470    0.8884 H   0  0  0  1  0  0  0  0  0  0  0  0
   11.0502  -19.3111   -1.4730 O   0  0  0  1  0  0  0  0  0  0  0  0
   13.0000  -17.8754   -1.4533 O   0  0  0  1  0  0  0  0  0  0  0  0
  1  2  1  0  0  0  0
  1  3  1  0  0  0  0
  1  5  1  0  0  0  0
  2  7  2  0  0  0  0
  2  8  1  0  0  0  0
  3  4  1  0  0  0  0
  3  9  1  0  0  0  0
  3 10  1  0  0  0  0
  5  6  1  0  0  0  0
  5 12  2  0  0  0  0
  7 12  1  0  0  0  0
  7 13  1  0  0  0  0
  8 14  2  0  0  0  0
  9 16  1  0  0  0  0
 10 11  1  0  0  0  0
 10 18  1  0  0  0  0
 10 20  1  0  0  0  0
 13 22  2  0  0  0  0
 13 23  1  0  0  0  0
 14 15  1  0  0  0  0
 14 22  1  0  0  0  0
 16 17  1  0  0  0  0
 16 18  1  0  0  0  0
 16 26  1  0  0  0  0
 18 19  1  0  0  0  0
 18 29  1  0  0  0  0
 20 21  1  0  0  0  0
 23 24  1  0  0  0  0
 23 25  1  0  0  0  0
 26 27  1  0  0  0  0
 26 28  1  0  0  0  0
 26 31  1  0  0  0  0
 29 30  1  0  0  0  0
 31 32  1  0  0  0  0
 32 33  1  0  0  0  0
 32 34  2  0  0  0  0
 32 35  1  0  0  0  0
 33 36  1  0  0  0  0
 36 37  1  0  0  0  0
 36 39  2  0  0  0  0
 36 40  2  0  0  0  0
 37 38  1  0  0  0  0
M  END
> <ConfClashScore>
0 

> <ConfOneFourInteractionScore>
-0.97979 

> <ConfScore>
-0.333431 

> <ConfScorePBest>
0.0143775 

> <ConfTolerance>
0.904017 

$$$$
ChEBI.****
  PyMOL2.5          3D                             0

 40 42  0  0  0  0  0  0  0  0999 V2000
    9.6573   -9.8539   -2.4135 N   0  0  0  1  0  0  0  0  0  0  0  0
    9.7482   -8.4861   -2.3919 C   0  0  0  1  0  0  0  0  0  0  0  0
    8.6368  -10.6870   -1.7155 C   0  0  0  1  0  0  0  0  0  0  0  0
    8.8259  -10.6756   -0.6624 H   0  0  0  1  0  0  0  0  0  0  0  0
   10.5593  -10.2687   -3.3448 C   0  0  0  1  0  0  0  0  0  0  0  0
   10.7008  -11.2723   -3.5781 H   0  0  0  1  0  0  0  0  0  0  0  0
   10.7329   -8.1609   -3.3344 C   0  0  0  1  0  0  0  0  0  0  0  0
    9.0622   -7.6334   -1.6294 N   0  0  0  1  0  0  0  0  0  0  0  0
    7.3054  -10.1998   -1.9971 O   0  0  0  1  0  0  0  0  0  0  0  0
    8.6573  -12.1221   -2.2499 C   0  0  0  1  0  0  0  0  0  0  0  0
    9.0762  -12.1593   -3.2338 H   0  0  0  1  0  0  0  0  0  0  0  0
   11.2332   -9.3120   -3.9230 N   0  0  0  1  0  0  0  0  0  0  0  0
   11.0064   -6.8033   -3.4717 C   0  0  0  1  0  0  0  0  0  0  0  0
    9.4172   -6.3771   -1.8695 C   0  0  0  1  0  0  0  0  0  0  0  0
    8.9185   -5.6545   -1.3121 H   0  0  0  1  0  0  0  0  0  0  0  0
    6.5099  -11.1747   -2.6152 C   0  0  0  1  0  0  0  0  0  0  0  0
    5.5132  -11.1528   -2.2266 H   0  0  0  1  0  0  0  0  0  0  0  0
    7.1999  -12.5019   -2.2685 C   0  0  0  1  0  0  0  0  0  0  0  0
    7.0043  -13.2445   -3.0136 H   0  0  0  1  0  0  0  0  0  0  0  0
    9.3995  -12.9810   -1.3830 O   0  0  0  1  0  0  0  0  0  0  0  0
   10.2608  -13.1584   -1.7682 H   0  0  0  1  0  0  0  0  0  0  0  0
   10.3331   -5.9134   -2.7344 N   0  0  0  1  0  0  0  0  0  0  0  0
   11.9552   -6.3701   -4.3514 N   0  0  0  1  0  0  0  0  0  0  0  0
   12.1322   -5.4111   -4.4484 H   0  0  0  1  0  0  0  0  0  0  0  0
   12.4598   -7.0181   -4.8862 H   0  0  0  1  0  0  0  0  0  0  0  0
    6.4736  -10.9704   -4.0762 C   0  0  0  1  0  0  0  0  0  0  0  0
    6.0644  -11.8415   -4.5436 H   0  0  0  1  0  0  0  0  0  0  0  0
    7.4687  -10.8072   -4.4340 H   0  0  0  1  0  0  0  0  0  0  0  0
    6.7771  -12.9841   -0.9922 O   0  0  0  1  0  0  0  0  0  0  0  0
    7.4636  -12.8159   -0.3426 H   0  0  0  1  0  0  0  0  0  0  0  0
    5.6548   -9.8237   -4.4057 O   0  0  0  1  0  0  0  0  0  0  0  0
    5.5033   -9.2381   -5.9300 P   0  0  0  1  0  0  0  0  0  0  0  0
    4.8205   -7.7078   -5.8979 O   0  0  0  1  0  0  0  0  0  0  0  0
    6.7680   -9.0899   -6.6844 O   0  0  0  1  0  0  0  0  0  0  0  0
    4.5078  -10.2055   -6.7653 O   0  5  0  1  0  0  0  0  0  0  0  0
    3.4989   -6.9782   -6.4203 S   0  0  0  1  0  0  0  0  0  0  0  0
    2.8322   -6.4437   -5.2492 O   0  0  0  1  0  0  0  0  0  0  0  0
    3.4297   -5.8565   -4.7804 H   0  0  0  1  0  0  0  0  0  0  0  0
    3.9360   -5.9345   -7.3179 O   0  0  0  1  0  0  0  0  0  0  0  0
    2.7951   -8.0582   -7.0542 O   0  0  0  1  0  0  0  0  0  0  0  0
  1  2  1  0  0  0  0
  1  3  1  0  0  0  0
  1  5  1  0  0  0  0
  2  7  2  0  0  0  0
  2  8  1  0  0  0  0
  3  4  1  0  0  0  0
  3  9  1  0  0  0  0
  3 10  1  0  0  0  0
  5  6  1  0  0  0  0
  5 12  2  0  0  0  0
  7 12  1  0  0  0  0
  7 13  1  0  0  0  0
  8 14  2  0  0  0  0
  9 16  1  0  0  0  0
 10 11  1  0  0  0  0
 10 18  1  0  0  0  0
 10 20  1  0  0  0  0
 13 22  2  0  0  0  0
 13 23  1  0  0  0  0
 14 15  1  0  0  0  0
 14 22  1  0  0  0  0
 16 17  1  0  0  0  0
 16 18  1  0  0  0  0
 16 26  1  0  0  0  0
 18 19  1  0  0  0  0
 18 29  1  0  0  0  0
 20 21  1  0  0  0  0
 23 24  1  0  0  0  0
 23 25  1  0  0  0  0
 26 27  1  0  0  0  0
 26 28  1  0  0  0  0
 26 31  1  0  0  0  0
 29 30  1  0  0  0  0
 31 32  1  0  0  0  0
 32 33  1  0  0  0  0
 32 34  2  0  0  0  0
 32 35  1  0  0  0  0
 33 36  1  0  0  0  0
 36 37  1  0  0  0  0
 36 39  2  0  0  0  0
 36 40  2  0  0  0  0
 37 38  1  0  0  0  0
M  END
> <ConfClashScore>
0 

> <ConfOneFourInteractionScore>
-0.97752 

> <ConfScore>
-0.331876 

> <ConfScorePBest>
0.0142745 

> <ConfTolerance>
0.908802 

$$$$
ChEBI.****
  PyMOL2.5          3D                             0

 40 42  0  0  0  0  0  0  0  0999 V2000
    9.6386   -9.8596   -2.4164 N   0  0  0  1  0  0  0  0  0  0  0  0
    9.7397   -8.4924   -2.3991 C   0  0  0  1  0  0  0  0  0  0  0  0
    8.6686  -10.6826   -1.6730 C   0  0  0  1  0  0  0  0  0  0  0  0
    7.6803  -10.4781   -2.0284 H   0  0  0  1  0  0  0  0  0  0  0  0
   10.5410  -10.2844   -3.3427 C   0  0  0  1  0  0  0  0  0  0  0  0
   10.6758  -11.2898   -3.5720 H   0  0  0  1  0  0  0  0  0  0  0  0
   10.7305   -8.1780   -3.3389 C   0  0  0  1  0  0  0  0  0  0  0  0
    9.0573   -7.6320   -1.6422 N   0  0  0  1  0  0  0  0  0  0  0  0
    8.9835  -12.1019   -1.8086 O   0  0  0  1  0  0  0  0  0  0  0  0
    8.7690  -10.4181   -0.1882 C   0  0  0  1  0  0  0  0  0  0  0  0
    9.0427   -9.4012    0.0013 H   0  0  0  1  0  0  0  0  0  0  0  0
   11.2243   -9.3348   -3.9216 N   0  0  0  1  0  0  0  0  0  0  0  0
   11.0148   -6.8229   -3.4797 C   0  0  0  1  0  0  0  0  0  0  0  0
    9.4227   -6.3793   -1.8851 C   0  0  0  1  0  0  0  0  0  0  0  0
    8.9273   -5.6510   -1.3322 H   0  0  0  1  0  0  0  0  0  0  0  0
    9.7454  -12.5439   -0.7207 C   0  0  0  1  0  0  0  0  0  0  0  0
    9.2585  -13.3716   -0.2487 H   0  0  0  1  0  0  0  0  0  0  0  0
    9.8736  -11.3784    0.2729 C   0  0  0  1  0  0  0  0  0  0  0  0
   10.8373  -10.9184    0.2054 H   0  0  0  1  0  0  0  0  0  0  0  0
    7.5335  -10.7093    0.4667 O   0  0  0  1  0  0  0  0  0  0  0  0
    6.8464  -10.8434   -0.1902 H   0  0  0  1  0  0  0  0  0  0  0  0
   10.3453   -5.9255   -2.7481 N   0  0  0  1  0  0  0  0  0  0  0  0
   11.9630   -6.3441   -4.3449 N   0  0  0  1  0  0  0  0  0  0  0  0
   12.1104   -5.3785   -4.4249 H   0  0  0  1  0  0  0  0  0  0  0  0
   12.4939   -6.9671   -4.8837 H   0  0  0  1  0  0  0  0  0  0  0  0
   11.1004  -12.9631   -1.1878 C   0  0  0  1  0  0  0  0  0  0  0  0
   11.0083  -13.6779   -1.9786 H   0  0  0  1  0  0  0  0  0  0  0  0
   11.6476  -13.3963   -0.3768 H   0  0  0  1  0  0  0  0  0  0  0  0
    9.6476  -11.8173    1.6131 O   0  0  0  1  0  0  0  0  0  0  0  0
   10.4904  -11.9565    2.0512 H   0  0  0  1  0  0  0  0  0  0  0  0
   11.7794  -11.7905   -1.6650 O   0  0  0  1  0  0  0  0  0  0  0  0
   13.3547  -11.7249   -2.1163 P   0  0  0  1  0  0  0  0  0  0  0  0
   13.6849  -10.1480   -2.3006 O   0  0  0  1  0  0  0  0  0  0  0  0
   14.2793  -12.4025   -1.1802 O   0  0  0  1  0  0  0  0  0  0  0  0
   13.3194  -12.2460   -3.6498 O   0  5  0  1  0  0  0  0  0  0  0  0
   15.0047   -9.4165   -1.7384 S   0  0  0  1  0  0  0  0  0  0  0  0
   15.0463   -9.9554   -0.3932 O   0  0  0  1  0  0  0  0  0  0  0  0
   14.1529  -10.0293   -0.0499 H   0  0  0  1  0  0  0  0  0  0  0  0
   16.1045   -9.8442   -2.5712 O   0  0  0  1  0  0  0  0  0  0  0  0
   14.7702   -8.0017   -1.8211 O   0  0  0  1  0  0  0  0  0  0  0  0
  1  2  1  0  0  0  0
  1  3  1  0  0  0  0
  1  5  1  0  0  0  0
  2  7  2  0  0  0  0
  2  8  1  0  0  0  0
  3  4  1  0  0  0  0
  3  9  1  0  0  0  0
  3 10  1  0  0  0  0
  5  6  1  0  0  0  0
  5 12  2  0  0  0  0
  7 12  1  0  0  0  0
  7 13  1  0  0  0  0
  8 14  2  0  0  0  0
  9 16  1  0  0  0  0
 10 11  1  0  0  0  0
 10 18  1  0  0  0  0
 10 20  1  0  0  0  0
 13 22  2  0  0  0  0
 13 23  1  0  0  0  0
 14 15  1  0  0  0  0
 14 22  1  0  0  0  0
 16 17  1  0  0  0  0
 16 18  1  0  0  0  0
 16 26  1  0  0  0  0
 18 19  1  0  0  0  0
 18 29  1  0  0  0  0
 20 21  1  0  0  0  0
 23 24  1  0  0  0  0
 23 25  1  0  0  0  0
 26 27  1  0  0  0  0
 26 28  1  0  0  0  0
 26 31  1  0  0  0  0
 29 30  1  0  0  0  0
 31 32  1  0  0  0  0
 32 33  1  0  0  0  0
 32 34  2  0  0  0  0
 32 35  1  0  0  0  0
 33 36  1  0  0  0  0
 36 37  1  0  0  0  0
 36 39  2  0  0  0  0
 36 40  2  0  0  0  0
 37 38  1  0  0  0  0
M  END
> <ConfClashScore>
0 

> <ConfOneFourInteractionScore>
-0.984718 

> <ConfScore>
-0.326035 

> <ConfScorePBest>
0.0141715 

> <ConfTolerance>
0.777989 

$$$$
ChEBI.****
  PyMOL2.5          3D                             0

 40 42  0  0  0  0  0  0  0  0999 V2000
    9.5912   -9.8633   -2.4436 N   0  0  0  1  0  0  0  0  0  0  0  0
    9.7094   -8.4975   -2.4251 C   0  0  0  1  0  0  0  0  0  0  0  0
    8.8007  -10.6966   -1.5301 C   0  0  0  1  0  0  0  0  0  0  0  0
    9.4027  -11.5064   -1.1740 H   0  0  0  1  0  0  0  0  0  0  0  0
   10.5034  -10.3000   -3.3546 C   0  0  0  1  0  0  0  0  0  0  0  0
   10.6292  -11.3072   -3.5813 H   0  0  0  1  0  0  0  0  0  0  0  0
   10.7197   -8.1962   -3.3484 C   0  0  0  1  0  0  0  0  0  0  0  0
    9.0254   -7.6280   -1.6801 N   0  0  0  1  0  0  0  0  0  0  0  0
    8.3543   -9.9259   -0.4502 O   0  0  0  1  0  0  0  0  0  0  0  0
    7.5663  -11.2467   -2.2620 C   0  0  0  1  0  0  0  0  0  0  0  0
    7.6677  -11.1412   -3.3219 H   0  0  0  1  0  0  0  0  0  0  0  0
   11.2084   -9.3595   -3.9223 N   0  0  0  1  0  0  0  0  0  0  0  0
   11.0235   -6.8449   -3.4849 C   0  0  0  1  0  0  0  0  0  0  0  0
    9.4107   -6.3801   -1.9173 C   0  0  0  1  0  0  0  0  0  0  0  0
    8.9155   -5.6453   -1.3730 H   0  0  0  1  0  0  0  0  0  0  0  0
    6.9005   -9.9959   -0.3346 C   0  0  0  1  0  0  0  0  0  0  0  0
    6.6122  -10.7454    0.3725 H   0  0  0  1  0  0  0  0  0  0  0  0
    6.4328  -10.3630   -1.7243 C   0  0  0  1  0  0  0  0  0  0  0  0
    6.3093   -9.4892   -2.3294 H   0  0  0  1  0  0  0  0  0  0  0  0
    7.3458  -12.6203   -1.9384 O   0  0  0  1  0  0  0  0  0  0  0  0
    6.9125  -12.6827   -1.0840 H   0  0  0  1  0  0  0  0  0  0  0  0
   10.3534   -5.9386   -2.7650 N   0  0  0  1  0  0  0  0  0  0  0  0
   11.9931   -6.3132   -4.3282 N   0  0  0  1  0  0  0  0  0  0  0  0
   12.1262   -5.3433   -4.3717 H   0  0  0  1  0  0  0  0  0  0  0  0
   12.5433   -6.9085   -4.8789 H   0  0  0  1  0  0  0  0  0  0  0  0
    6.3388   -8.6761    0.0809 C   0  0  0  1  0  0  0  0  0  0  0  0
    5.2699   -8.7225    0.0931 H   0  0  0  1  0  0  0  0  0  0  0  0
    6.6555   -7.9144   -0.6006 H   0  0  0  1  0  0  0  0  0  0  0  0
    5.2020  -11.0860   -1.6742 O   0  0  0  1  0  0  0  0  0  0  0  0
    4.8802  -11.2332   -2.5666 H   0  0  0  1  0  0  0  0  0  0  0  0
    6.8311   -8.3882    1.3995 O   0  0  0  1  0  0  0  0  0  0  0  0
    6.2627   -7.2087    2.3870 P   0  0  0  1  0  0  0  0  0  0  0  0
    7.0113   -7.2662    3.8242 O   0  0  0  1  0  0  0  0  0  0  0  0
    6.3203   -5.8539    1.7939 O   0  0  0  1  0  0  0  0  0  0  0  0
    4.7349   -7.6399    2.7103 O   0  5  0  1  0  0  0  0  0  0  0  0
    8.4340   -6.5960    4.1397 S   0  0  0  1  0  0  0  0  0  0  0  0
    8.3027   -5.1994    3.7885 O   0  0  0  1  0  0  0  0  0  0  0  0
    7.6051   -5.0971    3.1370 H   0  0  0  1  0  0  0  0  0  0  0  0
    8.5744   -6.8503    5.5454 O   0  0  0  1  0  0  0  0  0  0  0  0
    9.3920   -7.2815    3.3102 O   0  0  0  1  0  0  0  0  0  0  0  0
  1  2  1  0  0  0  0
  1  3  1  0  0  0  0
  1  5  1  0  0  0  0
  2  7  2  0  0  0  0
  2  8  1  0  0  0  0
  3  4  1  0  0  0  0
  3  9  1  0  0  0  0
  3 10  1  0  0  0  0
  5  6  1  0  0  0  0
  5 12  2  0  0  0  0
  7 12  1  0  0  0  0
  7 13  1  0  0  0  0
  8 14  2  0  0  0  0
  9 16  1  0  0  0  0
 10 11  1  0  0  0  0
 10 18  1  0  0  0  0
 10 20  1  0  0  0  0
 13 22  2  0  0  0  0
 13 23  1  0  0  0  0
 14 15  1  0  0  0  0
 14 22  1  0  0  0  0
 16 17  1  0  0  0  0
 16 18  1  0  0  0  0
 16 26  1  0  0  0  0
 18 19  1  0  0  0  0
 18 29  1  0  0  0  0
 20 21  1  0  0  0  0
 23 24  1  0  0  0  0
 23 25  1  0  0  0  0
 26 27  1  0  0  0  0
 26 28  1  0  0  0  0
 26 31  1  0  0  0  0
 29 30  1  0  0  0  0
 31 32  1  0  0  0  0
 32 33  1  0  0  0  0
 32 34  2  0  0  0  0
 32 35  1  0  0  0  0
 33 36  1  0  0  0  0
 36 37  1  0  0  0  0
 36 39  2  0  0  0  0
 36 40  2  0  0  0  0
 37 38  1  0  0  0  0
M  END
> <ConfClashScore>
0 

> <ConfOneFourInteractionScore>
-0.97979 

> <ConfScore>
-0.324823 

> <ConfScorePBest>
0.0140685 

> <ConfTolerance>
0.993348 

$$$$
ChEBI.****
  PyMOL2.5          3D                             0

 40 42  0  0  0  0  0  0  0  0999 V2000
    9.6543   -9.8541   -2.4339 N   0  0  0  1  0  0  0  0  0  0  0  0
    9.7407   -8.4862   -2.3992 C   0  0  0  1  0  0  0  0  0  0  0  0
    8.6695  -10.6515   -1.6768 C   0  0  0  1  0  0  0  0  0  0  0  0
    7.6799  -10.3629   -1.9637 H   0  0  0  1  0  0  0  0  0  0  0  0
   10.5611  -10.2573   -3.3655 C   0  0  0  1  0  0  0  0  0  0  0  0
   10.7066  -11.2582   -3.6076 H   0  0  0  1  0  0  0  0  0  0  0  0
   10.7281   -8.1492   -3.3347 C   0  0  0  1  0  0  0  0  0  0  0  0
    9.0491   -7.6428   -1.6315 N   0  0  0  1  0  0  0  0  0  0  0  0
    8.8611  -12.0136   -1.9360 O   0  0  0  1  0  0  0  0  0  0  0  0
    8.8628  -10.4242   -0.1691 C   0  0  0  1  0  0  0  0  0  0  0  0
    9.4667   -9.5607    0.0164 H   0  0  0  1  0  0  0  0  0  0  0  0
   11.2343   -9.2931   -3.9321 N   0  0  0  1  0  0  0  0  0  0  0  0
   10.9979   -6.7895   -3.4582 C   0  0  0  1  0  0  0  0  0  0  0  0
    9.4011   -6.3833   -1.8584 C   0  0  0  1  0  0  0  0  0  0  0  0
    8.8979   -5.6674   -1.2963 H   0  0  0  1  0  0  0  0  0  0  0  0
    9.0716  -12.7491   -0.6923 C   0  0  0  1  0  0  0  0  0  0  0  0
    8.1541  -13.1755   -0.3443 H   0  0  0  1  0  0  0  0  0  0  0  0
    9.5789  -11.7061    0.2769 C   0  0  0  1  0  0  0  0  0  0  0  0
   10.6406  -11.5973    0.2004 H   0  0  0  1  0  0  0  0  0  0  0  0
    7.6064  -10.2789    0.4947 O   0  0  0  1  0  0  0  0  0  0  0  0
    7.7551  -10.0777    1.4215 H   0  0  0  1  0  0  0  0  0  0  0  0
   10.3189   -5.9087   -2.7154 N   0  0  0  1  0  0  0  0  0  0  0  0
   11.9681   -6.3885   -4.3531 N   0  0  0  1  0  0  0  0  0  0  0  0
   12.1384   -5.4341   -4.4962 H   0  0  0  1  0  0  0  0  0  0  0  0
   12.4871   -7.0581   -4.8458 H   0  0  0  1  0  0  0  0  0  0  0  0
   10.0834  -13.8308   -0.8825 C   0  0  0  1  0  0  0  0  0  0  0  0
   10.2683  -14.3246    0.0486 H   0  0  0  1  0  0  0  0  0  0  0  0
   10.9967  -13.4145   -1.2534 H   0  0  0  1  0  0  0  0  0  0  0  0
    9.2298  -12.0447    1.6199 O   0  0  0  1  0  0  0  0  0  0  0  0
    8.2743  -12.0419    1.7131 H   0  0  0  1  0  0  0  0  0  0  0  0
    9.5530  -14.7591   -1.8281 O   0  0  0  1  0  0  0  0  0  0  0  0
   10.3370  -15.9450   -2.6457 P   0  0  0  1  0  0  0  0  0  0  0  0
   11.4732  -15.2108   -3.5399 O   0  0  0  1  0  0  0  0  0  0  0  0
   10.9485  -16.8931   -1.6877 O   0  0  0  1  0  0  0  0  0  0  0  0
    9.3951  -16.5591   -3.8119 O   0  5  0  1  0  0  0  0  0  0  0  0
   11.7866  -15.5506   -5.0824 S   0  0  0  1  0  0  0  0  0  0  0  0
   12.3603  -14.2877   -5.5149 O   0  0  0  1  0  0  0  0  0  0  0  0
   13.3088  -14.2993   -5.3672 H   0  0  0  1  0  0  0  0  0  0  0  0
   12.7265  -16.6485   -5.0844 O   0  0  0  1  0  0  0  0  0  0  0  0
   10.5345  -15.8963   -5.7016 O   0  0  0  1  0  0  0  0  0  0  0  0
  1  2  1  0  0  0  0
  1  3  1  0  0  0  0
  1  5  1  0  0  0  0
  2  7  2  0  0  0  0
  2  8  1  0  0  0  0
  3  4  1  0  0  0  0
  3  9  1  0  0  0  0
  3 10  1  0  0  0  0
  5  6  1  0  0  0  0
  5 12  2  0  0  0  0
  7 12  1  0  0  0  0
  7 13  1  0  0  0  0
  8 14  2  0  0  0  0
  9 16  1  0  0  0  0
 10 11  1  0  0  0  0
 10 18  1  0  0  0  0
 10 20  1  0  0  0  0
 13 22  2  0  0  0  0
 13 23  1  0  0  0  0
 14 15  1  0  0  0  0
 14 22  1  0  0  0  0
 16 17  1  0  0  0  0
 16 18  1  0  0  0  0
 16 26  1  0  0  0  0
 18 19  1  0  0  0  0
 18 29  1  0  0  0  0
 20 21  1  0  0  0  0
 23 24  1  0  0  0  0
 23 25  1  0  0  0  0
 26 27  1  0  0  0  0
 26 28  1  0  0  0  0
 26 31  1  0  0  0  0
 29 30  1  0  0  0  0
 31 32  1  0  0  0  0
 32 33  1  0  0  0  0
 32 34  2  0  0  0  0
 32 35  1  0  0  0  0
 33 36  1  0  0  0  0
 36 37  1  0  0  0  0
 36 39  2  0  0  0  0
 36 40  2  0  0  0  0
 37 38  1  0  0  0  0
M  END
> <ConfClashScore>
0 

> <ConfOneFourInteractionScore>
-0.97979 

> <ConfScore>
-0.323908 

> <ConfScorePBest>
0.0139655 

> <ConfTolerance>
0.807023 

$$$$
ChEBI.****
  PyMOL2.5          3D                             0

 40 42  0  0  0  0  0  0  0  0999 V2000
    9.5994   -9.8679   -2.4437 N   0  0  0  1  0  0  0  0  0  0  0  0
    9.7171   -8.5022   -2.4182 C   0  0  0  1  0  0  0  0  0  0  0  0
    8.7637  -10.7021   -1.5779 C   0  0  0  1  0  0  0  0  0  0  0  0
    9.0678  -10.5769   -0.5597 H   0  0  0  1  0  0  0  0  0  0  0  0
   10.5044  -10.2989   -3.3646 C   0  0  0  1  0  0  0  0  0  0  0  0
   10.6288  -11.3047   -3.5982 H   0  0  0  1  0  0  0  0  0  0  0  0
   10.7197   -8.1950   -3.3479 C   0  0  0  1  0  0  0  0  0  0  0  0
    9.0388   -7.6374   -1.6626 N   0  0  0  1  0  0  0  0  0  0  0  0
    7.3524  -10.3651   -1.7412 O   0  0  0  1  0  0  0  0  0  0  0  0
    8.8506  -12.1543   -1.9879 C   0  0  0  1  0  0  0  0  0  0  0  0
    9.8204  -12.3844   -2.3770 H   0  0  0  1  0  0  0  0  0  0  0  0
   11.2043   -9.3547   -3.9326 N   0  0  0  1  0  0  0  0  0  0  0  0
   11.0217   -6.8428   -3.4791 C   0  0  0  1  0  0  0  0  0  0  0  0
    9.4216   -6.3880   -1.8957 C   0  0  0  1  0  0  0  0  0  0  0  0
    8.9305   -5.6566   -1.3431 H   0  0  0  1  0  0  0  0  0  0  0  0
    6.7432  -11.2261   -2.6614 C   0  0  0  1  0  0  0  0  0  0  0  0
    5.8987  -11.7026   -2.2089 H   0  0  0  1  0  0  0  0  0  0  0  0
    7.7778  -12.2837   -3.0776 C   0  0  0  1  0  0  0  0  0  0  0  0
    8.1823  -12.0679   -4.0444 H   0  0  0  1  0  0  0  0  0  0  0  0
    8.5633  -13.0143   -0.8842 O   0  0  0  1  0  0  0  0  0  0  0  0
    9.3363  -13.0789   -0.3187 H   0  0  0  1  0  0  0  0  0  0  0  0
   10.3571   -5.9411   -2.7484 N   0  0  0  1  0  0  0  0  0  0  0  0
   11.9892   -6.3030   -4.3316 N   0  0  0  1  0  0  0  0  0  0  0  0
   12.4634   -6.8825   -4.9638 H   0  0  0  1  0  0  0  0  0  0  0  0
   12.1932   -5.3451   -4.2970 H   0  0  0  1  0  0  0  0  0  0  0  0
    6.2973  -10.4543   -3.8595 C   0  0  0  1  0  0  0  0  0  0  0  0
    5.7140  -11.0815   -4.5008 H   0  0  0  1  0  0  0  0  0  0  0  0
    7.1486  -10.0890   -4.3951 H   0  0  0  1  0  0  0  0  0  0  0  0
    7.2038  -13.5916   -3.0819 O   0  0  0  1  0  0  0  0  0  0  0  0
    7.2160  -13.9499   -2.1914 H   0  0  0  1  0  0  0  0  0  0  0  0
    5.5007   -9.3521   -3.3967 O   0  0  0  1  0  0  0  0  0  0  0  0
    4.9068   -8.1495   -4.3404 P   0  0  0  1  0  0  0  0  0  0  0  0
    4.0658   -8.7781   -5.6467 O   0  0  0  1  0  0  0  0  0  0  0  0
    4.0082   -7.1873   -3.6644 O   0  0  0  1  0  0  0  0  0  0  0  0
    6.2103   -7.3957   -4.9380 O   0  5  0  1  0  0  0  0  0  0  0  0
    2.9774   -9.9688   -5.9473 S   0  0  0  1  0  0  0  0  0  0  0  0
    2.7526   -9.6922   -7.3487 O   0  0  0  1  0  0  0  0  0  0  0  0
    3.5785   -9.7828   -7.8297 H   0  0  0  1  0  0  0  0  0  0  0  0
    3.6190  -11.2263   -5.6880 O   0  0  0  1  0  0  0  0  0  0  0  0
    1.8484   -9.6943   -5.1375 O   0  0  0  1  0  0  0  0  0  0  0  0
  1  2  1  0  0  0  0
  1  3  1  0  0  0  0
  1  5  1  0  0  0  0
  2  7  2  0  0  0  0
  2  8  1  0  0  0  0
  3  4  1  0  0  0  0
  3  9  1  0  0  0  0
  3 10  1  0  0  0  0
  5  6  1  0  0  0  0
  5 12  2  0  0  0  0
  7 12  1  0  0  0  0
  7 13  1  0  0  0  0
  8 14  2  0  0  0  0
  9 16  1  0  0  0  0
 10 11  1  0  0  0  0
 10 18  1  0  0  0  0
 10 20  1  0  0  0  0
 13 22  2  0  0  0  0
 13 23  1  0  0  0  0
 14 15  1  0  0  0  0
 14 22  1  0  0  0  0
 16 17  1  0  0  0  0
 16 18  1  0  0  0  0
 16 26  1  0  0  0  0
 18 19  1  0  0  0  0
 18 29  1  0  0  0  0
 20 21  1  0  0  0  0
 23 24  1  0  0  0  0
 23 25  1  0  0  0  0
 26 27  1  0  0  0  0
 26 28  1  0  0  0  0
 26 31  1  0  0  0  0
 29 30  1  0  0  0  0
 31 32  1  0  0  0  0
 32 33  1  0  0  0  0
 32 34  2  0  0  0  0
 32 35  1  0  0  0  0
 33 36  1  0  0  0  0
 36 37  1  0  0  0  0
 36 39  2  0  0  0  0
 36 40  2  0  0  0  0
 37 38  1  0  0  0  0
M  END
> <ConfClashScore>
0 

> <ConfOneFourInteractionScore>
-0.979734 

> <ConfScore>
-0.322939 

> <ConfScorePBest>
0.0138625 

> <ConfTolerance>
0.857518 

$$$$
ChEBI.****
  PyMOL2.5          3D                             0

 40 42  0  0  0  0  0  0  0  0999 V2000
    9.6189   -9.8692   -2.4275 N   0  0  0  1  0  0  0  0  0  0  0  0
    9.7288   -8.5027   -2.4097 C   0  0  0  1  0  0  0  0  0  0  0  0
    8.7084  -10.6998   -1.6152 C   0  0  0  1  0  0  0  0  0  0  0  0
    7.7096  -10.6031   -1.9867 H   0  0  0  1  0  0  0  0  0  0  0  0
   10.5232  -10.2999   -3.3491 C   0  0  0  1  0  0  0  0  0  0  0  0
   10.6526  -11.3062   -3.5777 H   0  0  0  1  0  0  0  0  0  0  0  0
   10.7265   -8.1948   -3.3444 C   0  0  0  1  0  0  0  0  0  0  0  0
    9.0481   -7.6377   -1.6564 N   0  0  0  1  0  0  0  0  0  0  0  0
    9.1119  -12.0385   -1.6480 O   0  0  0  1  0  0  0  0  0  0  0  0
    8.7728  -10.2766   -0.1391 C   0  0  0  1  0  0  0  0  0  0  0  0
    8.9657   -9.2283   -0.0461 H   0  0  0  1  0  0  0  0  0  0  0  0
   11.2157   -9.3549   -3.9245 N   0  0  0  1  0  0  0  0  0  0  0  0
   11.0204   -6.8416   -3.4838 C   0  0  0  1  0  0  0  0  0  0  0  0
    9.4230   -6.3874   -1.8975 C   0  0  0  1  0  0  0  0  0  0  0  0
    8.9295   -5.6559   -1.3472 H   0  0  0  1  0  0  0  0  0  0  0  0
    9.8745  -12.3787   -0.4764 C   0  0  0  1  0  0  0  0  0  0  0  0
    9.3927  -13.1674    0.0627 H   0  0  0  1  0  0  0  0  0  0  0  0
    9.9360  -11.0968    0.3904 C   0  0  0  1  0  0  0  0  0  0  0  0
   10.8642  -10.5827    0.2526 H   0  0  0  1  0  0  0  0  0  0  0  0
    7.5601  -10.6010    0.5437 O   0  0  0  1  0  0  0  0  0  0  0  0
    7.7288  -11.2966    1.1835 H   0  0  0  1  0  0  0  0  0  0  0  0
   10.3531   -5.9398   -2.7558 N   0  0  0  1  0  0  0  0  0  0  0  0
   11.9769   -6.3037   -4.3380 N   0  0  0  1  0  0  0  0  0  0  0  0
   12.5038   -6.8932   -4.9170 H   0  0  0  1  0  0  0  0  0  0  0  0
   12.1241   -5.3351   -4.3609 H   0  0  0  1  0  0  0  0  0  0  0  0
   11.2516  -12.8078   -0.8628 C   0  0  0  1  0  0  0  0  0  0  0  0
   11.2027  -13.6908   -1.4651 H   0  0  0  1  0  0  0  0  0  0  0  0
   11.8313  -13.0055    0.0146 H   0  0  0  1  0  0  0  0  0  0  0  0
    9.7615  -11.4030    1.7746 O   0  0  0  1  0  0  0  0  0  0  0  0
    9.0782  -12.0704    1.8715 H   0  0  0  1  0  0  0  0  0  0  0  0
   11.8523  -11.7292   -1.6176 O   0  0  0  1  0  0  0  0  0  0  0  0
   13.3425  -11.8959   -2.2817 P   0  0  0  1  0  0  0  0  0  0  0  0
   13.5526  -10.6328   -3.2767 O   0  0  0  1  0  0  0  0  0  0  0  0
   14.3970  -12.2012   -1.2891 O   0  0  0  1  0  0  0  0  0  0  0  0
   13.1859  -13.1811   -3.2555 O   0  5  0  1  0  0  0  0  0  0  0  0
   13.9084  -10.7383   -4.6973 S   0  0  0  1  0  0  0  0  0  0  0  0
   13.2985  -11.9865   -5.2228 O   0  0  0  1  0  0  0  0  0  0  0  0
   12.3791  -12.0332   -4.9505 H   0  0  0  1  0  0  0  0  0  0  0  0
   13.3830   -9.5747   -5.4412 O   0  0  0  1  0  0  0  0  0  0  0  0
   15.3616  -10.8414   -4.8808 O   0  0  0  1  0  0  0  0  0  0  0  0
  1  2  1  0  0  0  0
  1  3  1  0  0  0  0
  1  5  1  0  0  0  0
  2  7  2  0  0  0  0
  2  8  1  0  0  0  0
  3  4  1  0  0  0  0
  3  9  1  0  0  0  0
  3 10  1  0  0  0  0
  5  6  1  0  0  0  0
  5 12  2  0  0  0  0
  7 12  1  0  0  0  0
  7 13  1  0  0  0  0
  8 14  2  0  0  0  0
  9 16  1  0  0  0  0
 10 11  1  0  0  0  0
 10 18  1  0  0  0  0
 10 20  1  0  0  0  0
 13 22  2  0  0  0  0
 13 23  1  0  0  0  0
 14 15  1  0  0  0  0
 14 22  1  0  0  0  0
 16 17  1  0  0  0  0
 16 18  1  0  0  0  0
 16 26  1  0  0  0  0
 18 19  1  0  0  0  0
 18 29  1  0  0  0  0
 20 21  1  0  0  0  0
 23 24  1  0  0  0  0
 23 25  1  0  0  0  0
 26 27  1  0  0  0  0
 26 28  1  0  0  0  0
 26 31  1  0  0  0  0
 29 30  1  0  0  0  0
 31 32  1  0  0  0  0
 32 33  1  0  0  0  0
 32 34  2  0  0  0  0
 32 35  1  0  0  0  0
 33 36  1  0  0  0  0
 36 37  1  0  0  0  0
 36 39  2  0  0  0  0
 36 40  2  0  0  0  0
 37 38  1  0  0  0  0
M  END
> <ConfClashScore>
0 

> <ConfOneFourInteractionScore>
-0.988194 

> <ConfScore>
-0.318346 

> <ConfScorePBest>
0.0137595 

> <ConfTolerance>
0.899546 

$$$$
ChEBI.****
  PyMOL2.5          3D                             0

 40 42  0  0  0  0  0  0  0  0999 V2000
    9.6254   -9.8583   -2.4286 N   0  0  0  1  0  0  0  0  0  0  0  0
    9.7292   -8.4913   -2.4090 C   0  0  0  1  0  0  0  0  0  0  0  0
    8.7252  -10.6867   -1.6259 C   0  0  0  1  0  0  0  0  0  0  0  0
    8.1511  -10.0620   -0.9739 H   0  0  0  1  0  0  0  0  0  0  0  0
   10.5332  -10.2838   -3.3492 C   0  0  0  1  0  0  0  0  0  0  0  0
   10.6676  -11.2892   -3.5788 H   0  0  0  1  0  0  0  0  0  0  0  0
   10.7271   -8.1778   -3.3416 C   0  0  0  1  0  0  0  0  0  0  0  0
    9.0433   -7.6303   -1.6558 N   0  0  0  1  0  0  0  0  0  0  0  0
    7.8503  -11.4420   -2.4846 O   0  0  0  1  0  0  0  0  0  0  0  0
    9.5233  -11.6903   -0.8167 C   0  0  0  1  0  0  0  0  0  0  0  0
   10.5321  -11.3605   -0.6805 H   0  0  0  1  0  0  0  0  0  0  0  0
   11.2225   -9.3349   -3.9222 N   0  0  0  1  0  0  0  0  0  0  0  0
   11.0151   -6.8231   -3.4789 C   0  0  0  1  0  0  0  0  0  0  0  0
    9.4130   -6.3781   -1.8948 C   0  0  0  1  0  0  0  0  0  0  0  0
    8.9152   -5.6494   -1.3444 H   0  0  0  1  0  0  0  0  0  0  0  0
    8.0731  -12.8410   -2.2758 C   0  0  0  1  0  0  0  0  0  0  0  0
    7.3474  -13.2391   -1.5977 H   0  0  0  1  0  0  0  0  0  0  0  0
    9.4678  -12.9390   -1.6807 C   0  0  0  1  0  0  0  0  0  0  0  0
   10.2189  -12.9195   -2.4425 H   0  0  0  1  0  0  0  0  0  0  0  0
    8.9204  -11.9194    0.4577 O   0  0  0  1  0  0  0  0  0  0  0  0
    9.3407  -11.3612    1.1160 H   0  0  0  1  0  0  0  0  0  0  0  0
   10.3425   -5.9252   -2.7509 N   0  0  0  1  0  0  0  0  0  0  0  0
   11.9702   -6.3453   -4.3369 N   0  0  0  1  0  0  0  0  0  0  0  0
   12.1346   -5.3812   -4.3994 H   0  0  0  1  0  0  0  0  0  0  0  0
   12.4891   -6.9675   -4.8882 H   0  0  0  1  0  0  0  0  0  0  0  0
    8.0037  -13.5810   -3.5710 C   0  0  0  1  0  0  0  0  0  0  0  0
    8.1517  -14.6270   -3.4015 H   0  0  0  1  0  0  0  0  0  0  0  0
    8.7563  -13.2174   -4.2391 H   0  0  0  1  0  0  0  0  0  0  0  0
    9.6163  -14.1228   -0.8946 O   0  0  0  1  0  0  0  0  0  0  0  0
    9.1127  -14.0333   -0.0823 H   0  0  0  1  0  0  0  0  0  0  0  0
    6.6914  -13.3543   -4.1369 O   0  0  0  1  0  0  0  0  0  0  0  0
    6.2515  -14.0610   -5.5499 P   0  0  0  1  0  0  0  0  0  0  0  0
    4.7694  -13.4254   -6.0064 O   0  0  0  1  0  0  0  0  0  0  0  0
    7.0917  -13.8443   -6.7488 O   0  0  0  1  0  0  0  0  0  0  0  0
    6.0176  -15.6560   -5.3896 O   0  5  0  1  0  0  0  0  0  0  0  0
    3.6827  -12.4016   -5.4385 S   0  0  0  1  0  0  0  0  0  0  0  0
    2.4377  -12.7026   -6.1170 O   0  0  0  1  0  0  0  0  0  0  0  0
    2.0844  -11.9006   -6.5089 H   0  0  0  1  0  0  0  0  0  0  0  0
    3.5969  -12.6433   -4.0194 O   0  0  0  1  0  0  0  0  0  0  0  0
    4.2531  -11.1364   -5.7962 O   0  0  0  1  0  0  0  0  0  0  0  0
  1  2  1  0  0  0  0
  1  3  1  0  0  0  0
  1  5  1  0  0  0  0
  2  7  2  0  0  0  0
  2  8  1  0  0  0  0
  3  4  1  0  0  0  0
  3  9  1  0  0  0  0
  3 10  1  0  0  0  0
  5  6  1  0  0  0  0
  5 12  2  0  0  0  0
  7 12  1  0  0  0  0
  7 13  1  0  0  0  0
  8 14  2  0  0  0  0
  9 16  1  0  0  0  0
 10 11  1  0  0  0  0
 10 18  1  0  0  0  0
 10 20  1  0  0  0  0
 13 22  2  0  0  0  0
 13 23  1  0  0  0  0
 14 15  1  0  0  0  0
 14 22  1  0  0  0  0
 16 17  1  0  0  0  0
 16 18  1  0  0  0  0
 16 26  1  0  0  0  0
 18 19  1  0  0  0  0
 18 29  1  0  0  0  0
 20 21  1  0  0  0  0
 23 24  1  0  0  0  0
 23 25  1  0  0  0  0
 26 27  1  0  0  0  0
 26 28  1  0  0  0  0
 26 31  1  0  0  0  0
 29 30  1  0  0  0  0
 31 32  1  0  0  0  0
 32 33  1  0  0  0  0
 32 34  2  0  0  0  0
 32 35  1  0  0  0  0
 33 36  1  0  0  0  0
 36 37  1  0  0  0  0
 36 39  2  0  0  0  0
 36 40  2  0  0  0  0
 37 38  1  0  0  0  0
M  END
> <ConfClashScore>
0 

> <ConfOneFourInteractionScore>
-0.977742 

> <ConfScore>
-0.315697 

> <ConfScorePBest>
0.0136565 

> <ConfTolerance>
0.933335 

$$$$
ChEBI.****
  PyMOL2.5          3D                             0

 40 42  0  0  0  0  0  0  0  0999 V2000
    9.6274   -9.8579   -2.4276 N   0  0  0  1  0  0  0  0  0  0  0  0
    9.7296   -8.4908   -2.4096 C   0  0  0  1  0  0  0  0  0  0  0  0
    8.7193  -10.6937   -1.6179 C   0  0  0  1  0  0  0  0  0  0  0  0
    7.7108  -10.3650   -1.7586 H   0  0  0  1  0  0  0  0  0  0  0  0
   10.5368  -10.2836   -3.3466 C   0  0  0  1  0  0  0  0  0  0  0  0
   10.6726  -11.2892   -3.5747 H   0  0  0  1  0  0  0  0  0  0  0  0
   10.7282   -8.1774   -3.3414 C   0  0  0  1  0  0  0  0  0  0  0  0
    9.0419   -7.6297   -1.6584 N   0  0  0  1  0  0  0  0  0  0  0  0
    8.8529  -12.0466   -1.9593 O   0  0  0  1  0  0  0  0  0  0  0  0
    9.1075  -10.6377   -0.1332 C   0  0  0  1  0  0  0  0  0  0  0  0
   10.1675  -10.5533   -0.0146 H   0  0  0  1  0  0  0  0  0  0  0  0
   11.2257   -9.3347   -3.9200 N   0  0  0  1  0  0  0  0  0  0  0  0
   11.0148   -6.8225   -3.4801 C   0  0  0  1  0  0  0  0  0  0  0  0
    9.4103   -6.3773   -1.8985 C   0  0  0  1  0  0  0  0  0  0  0  0
    8.9111   -5.6485   -1.3496 H   0  0  0  1  0  0  0  0  0  0  0  0
    8.8132  -12.9044   -0.7966 C   0  0  0  1  0  0  0  0  0  0  0  0
    8.0023  -13.5986   -0.8695 H   0  0  0  1  0  0  0  0  0  0  0  0
    8.6060  -11.9582    0.3898 C   0  0  0  1  0  0  0  0  0  0  0  0
    9.1752  -12.2761    1.2382 H   0  0  0  1  0  0  0  0  0  0  0  0
    8.4655   -9.5454    0.5261 O   0  0  0  1  0  0  0  0  0  0  0  0
    7.5376   -9.5237    0.2808 H   0  0  0  1  0  0  0  0  0  0  0  0
   10.3403   -5.9245   -2.7540 N   0  0  0  1  0  0  0  0  0  0  0  0
   11.9704   -6.3447   -4.3376 N   0  0  0  1  0  0  0  0  0  0  0  0
   12.1565   -5.3833   -4.3773 H   0  0  0  1  0  0  0  0  0  0  0  0
   12.4679   -6.9642   -4.9113 H   0  0  0  1  0  0  0  0  0  0  0  0
   10.0979  -13.6519   -0.6527 C   0  0  0  1  0  0  0  0  0  0  0  0
   10.2773  -14.2402   -1.5283 H   0  0  0  1  0  0  0  0  0  0  0  0
   10.0535  -14.2912    0.2042 H   0  0  0  1  0  0  0  0  0  0  0  0
    7.2250  -11.8772    0.7453 O   0  0  0  1  0  0  0  0  0  0  0  0
    6.7084  -12.4263    0.1510 H   0  0  0  1  0  0  0  0  0  0  0  0
   11.1562  -12.6791   -0.4874 O   0  0  0  1  0  0  0  0  0  0  0  0
   12.7475  -13.0761   -0.4869 P   0  0  0  1  0  0  0  0  0  0  0  0
   13.5610  -11.6109   -0.5106 O   0  0  0  1  0  0  0  0  0  0  0  0
   13.2202  -13.9545    0.6064 O   0  0  0  1  0  0  0  0  0  0  0  0
   13.0980  -13.7330   -1.9256 O   0  5  0  1  0  0  0  0  0  0  0  0
   14.0245  -10.4851    0.5235 S   0  0  0  1  0  0  0  0  0  0  0  0
   13.2068  -10.6517    1.7090 O   0  0  0  1  0  0  0  0  0  0  0  0
   12.8951  -11.5584    1.7584 H   0  0  0  1  0  0  0  0  0  0  0  0
   15.4228  -10.7275    0.7919 O   0  0  0  1  0  0  0  0  0  0  0  0
   13.7551   -9.2798   -0.2101 O   0  0  0  1  0  0  0  0  0  0  0  0
  1  2  1  0  0  0  0
  1  3  1  0  0  0  0
  1  5  1  0  0  0  0
  2  7  2  0  0  0  0
  2  8  1  0  0  0  0
  3  4  1  0  0  0  0
  3  9  1  0  0  0  0
  3 10  1  0  0  0  0
  5  6  1  0  0  0  0
  5 12  2  0  0  0  0
  7 12  1  0  0  0  0
  7 13  1  0  0  0  0
  8 14  2  0  0  0  0
  9 16  1  0  0  0  0
 10 11  1  0  0  0  0
 10 18  1  0  0  0  0
 10 20  1  0  0  0  0
 13 22  2  0  0  0  0
 13 23  1  0  0  0  0
 14 15  1  0  0  0  0
 14 22  1  0  0  0  0
 16 17  1  0  0  0  0
 16 18  1  0  0  0  0
 16 26  1  0  0  0  0
 18 19  1  0  0  0  0
 18 29  1  0  0  0  0
 20 21  1  0  0  0  0
 23 24  1  0  0  0  0
 23 25  1  0  0  0  0
 26 27  1  0  0  0  0
 26 28  1  0  0  0  0
 26 31  1  0  0  0  0
 29 30  1  0  0  0  0
 31 32  1  0  0  0  0
 32 33  1  0  0  0  0
 32 34  2  0  0  0  0
 32 35  1  0  0  0  0
 33 36  1  0  0  0  0
 36 37  1  0  0  0  0
 36 39  2  0  0  0  0
 36 40  2  0  0  0  0
 37 38  1  0  0  0  0
M  END
> <ConfClashScore>
0 

> <ConfOneFourInteractionScore>
-0.985503 

> <ConfScore>
-0.314077 

> <ConfScorePBest>
0.0135535 

> <ConfTolerance>
0.826844 

$$$$
ChEBI.****
  PyMOL2.5          3D                             0

 40 42  0  0  0  0  0  0  0  0999 V2000
    9.6298   -9.8588   -2.4304 N   0  0  0  1  0  0  0  0  0  0  0  0
    9.7306   -8.4917   -2.4109 C   0  0  0  1  0  0  0  0  0  0  0  0
    8.7133  -10.7048   -1.6137 C   0  0  0  1  0  0  0  0  0  0  0  0
    7.7105  -10.3452   -1.7145 H   0  0  0  1  0  0  0  0  0  0  0  0
   10.5397  -10.2826   -3.3498 C   0  0  0  1  0  0  0  0  0  0  0  0
   10.6765  -11.2877   -3.5791 H   0  0  0  1  0  0  0  0  0  0  0  0
   10.7291   -8.1762   -3.3422 C   0  0  0  1  0  0  0  0  0  0  0  0
    9.0420   -7.6321   -1.6587 N   0  0  0  1  0  0  0  0  0  0  0  0
    8.7998  -12.0882   -2.0234 O   0  0  0  1  0  0  0  0  0  0  0  0
    9.1419  -10.6970   -0.1433 C   0  0  0  1  0  0  0  0  0  0  0  0
   10.1773  -10.4450   -0.0467 H   0  0  0  1  0  0  0  0  0  0  0  0
   11.2278   -9.3323   -3.9220 N   0  0  0  1  0  0  0  0  0  0  0  0
   11.0144   -6.8209   -3.4793 C   0  0  0  1  0  0  0  0  0  0  0  0
    9.4093   -6.3791   -1.8973 C   0  0  0  1  0  0  0  0  0  0  0  0
    8.9093   -5.6514   -1.3477 H   0  0  0  1  0  0  0  0  0  0  0  0
    9.2052  -12.9222   -0.9722 C   0  0  0  1  0  0  0  0  0  0  0  0
    8.6567  -13.8408   -0.9839 H   0  0  0  1  0  0  0  0  0  0  0  0
    8.8879  -12.1154    0.2952 C   0  0  0  1  0  0  0  0  0  0  0  0
    9.5356  -12.3919    1.1008 H   0  0  0  1  0  0  0  0  0  0  0  0
    8.3546   -9.7776    0.6149 O   0  0  0  1  0  0  0  0  0  0  0  0
    8.0146   -9.0925    0.0348 H   0  0  0  1  0  0  0  0  0  0  0  0
   10.3390   -5.9243   -2.7522 N   0  0  0  1  0  0  0  0  0  0  0  0
   11.9697   -6.3411   -4.3361 N   0  0  0  1  0  0  0  0  0  0  0  0
   12.5302   -6.9645   -4.8437 H   0  0  0  1  0  0  0  0  0  0  0  0
   12.0926   -5.3746   -4.4414 H   0  0  0  1  0  0  0  0  0  0  0  0
   10.6671  -13.2134   -1.0617 C   0  0  0  1  0  0  0  0  0  0  0  0
   11.0075  -13.6541   -0.1480 H   0  0  0  1  0  0  0  0  0  0  0  0
   11.2083  -12.3088   -1.2453 H   0  0  0  1  0  0  0  0  0  0  0  0
    7.5281  -12.2956    0.6934 O   0  0  0  1  0  0  0  0  0  0  0  0
    7.3911  -11.8965    1.5557 H   0  0  0  1  0  0  0  0  0  0  0  0
   10.8634  -14.1304   -2.1499 O   0  0  0  1  0  0  0  0  0  0  0  0
   12.3103  -14.5034   -2.8260 P   0  0  0  1  0  0  0  0  0  0  0  0
   12.9077  -13.1292   -3.4458 O   0  0  0  1  0  0  0  0  0  0  0  0
   13.2712  -14.9666   -1.8001 O   0  0  0  1  0  0  0  0  0  0  0  0
   12.2174  -15.4536   -4.1347 O   0  5  0  1  0  0  0  0  0  0  0  0
   14.4228  -12.8280   -3.6345 S   0  0  0  1  0  0  0  0  0  0  0  0
   14.5441  -12.6636   -5.1633 O   0  0  0  1  0  0  0  0  0  0  0  0
   14.2179  -11.7978   -5.4194 H   0  0  0  1  0  0  0  0  0  0  0  0
   14.7916  -11.6541   -3.0304 O   0  0  0  1  0  0  0  0  0  0  0  0
   15.0371  -14.0777   -3.5746 O   0  0  0  1  0  0  0  0  0  0  0  0
  1  2  1  0  0  0  0
  1  3  1  0  0  0  0
  1  5  1  0  0  0  0
  2  7  2  0  0  0  0
  2  8  1  0  0  0  0
  3  4  1  0  0  0  0
  3  9  1  0  0  0  0
  3 10  1  0  0  0  0
  5  6  1  0  0  0  0
  5 12  2  0  0  0  0
  7 12  1  0  0  0  0
  7 13  1  0  0  0  0
  8 14  2  0  0  0  0
  9 16  1  0  0  0  0
 10 11  1  0  0  0  0
 10 18  1  0  0  0  0
 10 20  1  0  0  0  0
 13 22  2  0  0  0  0
 13 23  1  0  0  0  0
 14 15  1  0  0  0  0
 14 22  1  0  0  0  0
 16 17  1  0  0  0  0
 16 18  1  0  0  0  0
 16 26  1  0  0  0  0
 18 19  1  0  0  0  0
 18 29  1  0  0  0  0
 20 21  1  0  0  0  0
 23 24  1  0  0  0  0
 23 25  1  0  0  0  0
 26 27  1  0  0  0  0
 26 28  1  0  0  0  0
 26 31  1  0  0  0  0
 29 30  1  0  0  0  0
 31 32  1  0  0  0  0
 32 33  1  0  0  0  0
 32 34  2  0  0  0  0
 32 35  1  0  0  0  0
 33 36  1  0  0  0  0
 36 37  1  0  0  0  0
 36 39  2  0  0  0  0
 36 40  2  0  0  0  0
 37 38  1  0  0  0  0
M  END
> <ConfClashScore>
0 

> <ConfOneFourInteractionScore>
-0.967735 

> <ConfScore>
-0.313518 

> <ConfScorePBest>
0.0134505 

> <ConfTolerance>
0.868266 

$$$$
ChEBI.****
  PyMOL2.5          3D                             0

 40 42  0  0  0  0  0  0  0  0999 V2000
    9.6131   -9.8571   -2.4457 N   0  0  0  1  0  0  0  0  0  0  0  0
    9.7199   -8.4905   -2.4206 C   0  0  0  1  0  0  0  0  0  0  0  0
    8.7701  -10.7072   -1.5730 C   0  0  0  1  0  0  0  0  0  0  0  0
    8.8308  -11.7245   -1.8990 H   0  0  0  1  0  0  0  0  0  0  0  0
   10.5256  -10.2815   -3.3622 C   0  0  0  1  0  0  0  0  0  0  0  0
   10.6591  -11.2864   -3.5945 H   0  0  0  1  0  0  0  0  0  0  0  0
   10.7242   -8.1759   -3.3458 C   0  0  0  1  0  0  0  0  0  0  0  0
    9.0313   -7.6306   -1.6686 N   0  0  0  1  0  0  0  0  0  0  0  0
    9.2064  -10.6064   -0.2467 O   0  0  0  1  0  0  0  0  0  0  0  0
    7.3111  -10.2276   -1.6295 C   0  0  0  1  0  0  0  0  0  0  0  0
    7.1516   -9.5753   -2.4626 H   0  0  0  1  0  0  0  0  0  0  0  0
   11.2206   -9.3321   -3.9275 N   0  0  0  1  0  0  0  0  0  0  0  0
   11.0161   -6.8215   -3.4765 C   0  0  0  1  0  0  0  0  0  0  0  0
    9.4053   -6.3783   -1.9008 C   0  0  0  1  0  0  0  0  0  0  0  0
    8.9058   -5.6505   -1.3509 H   0  0  0  1  0  0  0  0  0  0  0  0
    8.1122  -10.1867    0.6241 C   0  0  0  1  0  0  0  0  0  0  0  0
    7.6442  -11.0342    1.0798 H   0  0  0  1  0  0  0  0  0  0  0  0
    7.1502   -9.4769   -0.3008 C   0  0  0  1  0  0  0  0  0  0  0  0
    7.4148   -8.4459   -0.4096 H   0  0  0  1  0  0  0  0  0  0  0  0
    6.4089  -11.3320   -1.7093 O   0  0  0  1  0  0  0  0  0  0  0  0
    5.7404  -11.1524   -2.3745 H   0  0  0  1  0  0  0  0  0  0  0  0
   10.3411   -5.9246   -2.7495 N   0  0  0  1  0  0  0  0  0  0  0  0
   11.9777   -6.3428   -4.3269 N   0  0  0  1  0  0  0  0  0  0  0  0
   12.5138   -6.9657   -4.8608 H   0  0  0  1  0  0  0  0  0  0  0  0
   12.1294   -5.3775   -4.4014 H   0  0  0  1  0  0  0  0  0  0  0  0
    8.6067   -9.2597    1.6853 C   0  0  0  1  0  0  0  0  0  0  0  0
    7.7793   -8.7768    2.1618 H   0  0  0  1  0  0  0  0  0  0  0  0
    9.2506   -8.5221    1.2538 H   0  0  0  1  0  0  0  0  0  0  0  0
    5.8099   -9.5767    0.1827 O   0  0  0  1  0  0  0  0  0  0  0  0
    5.4891   -8.7036    0.4202 H   0  0  0  1  0  0  0  0  0  0  0  0
    9.3396  -10.0491    2.6515 O   0  0  0  1  0  0  0  0  0  0  0  0
   10.1501   -9.3920    3.9168 P   0  0  0  1  0  0  0  0  0  0  0  0
   11.4034   -8.4605    3.3081 O   0  0  0  1  0  0  0  0  0  0  0  0
    9.3900   -8.4615    4.7810 O   0  0  0  1  0  0  0  0  0  0  0  0
   10.8497  -10.5655    4.7873 O   0  5  0  1  0  0  0  0  0  0  0  0
   13.0147   -8.2380    3.5729 S   0  0  0  1  0  0  0  0  0  0  0  0
   13.1944   -6.8174    3.5745 O   0  0  0  1  0  0  0  0  0  0  0  0
   14.1300   -6.6126    3.5089 H   0  0  0  1  0  0  0  0  0  0  0  0
   13.1675   -8.8496    4.8588 O   0  0  0  1  0  0  0  0  0  0  0  0
   13.6511   -8.9178    2.5058 O   0  0  0  1  0  0  0  0  0  0  0  0
  1  2  1  0  0  0  0
  1  3  1  0  0  0  0
  1  5  1  0  0  0  0
  2  7  2  0  0  0  0
  2  8  1  0  0  0  0
  3  4  1  0  0  0  0
  3  9  1  0  0  0  0
  3 10  1  0  0  0  0
  5  6  1  0  0  0  0
  5 12  2  0  0  0  0
  7 12  1  0  0  0  0
  7 13  1  0  0  0  0
  8 14  2  0  0  0  0
  9 16  1  0  0  0  0
 10 11  1  0  0  0  0
 10 18  1  0  0  0  0
 10 20  1  0  0  0  0
 13 22  2  0  0  0  0
 13 23  1  0  0  0  0
 14 15  1  0  0  0  0
 14 22  1  0  0  0  0
 16 17  1  0  0  0  0
 16 18  1  0  0  0  0
 16 26  1  0  0  0  0
 18 19  1  0  0  0  0
 18 29  1  0  0  0  0
 20 21  1  0  0  0  0
 23 24  1  0  0  0  0
 23 25  1  0  0  0  0
 26 27  1  0  0  0  0
 26 28  1  0  0  0  0
 26 31  1  0  0  0  0
 29 30  1  0  0  0  0
 31 32  1  0  0  0  0
 32 33  1  0  0  0  0
 32 34  2  0  0  0  0
 32 35  1  0  0  0  0
 33 36  1  0  0  0  0
 36 37  1  0  0  0  0
 36 39  2  0  0  0  0
 36 40  2  0  0  0  0
 37 38  1  0  0  0  0
M  END
> <ConfClashScore>
0 

> <ConfOneFourInteractionScore>
-0.97752 

> <ConfScore>
-0.309438 

> <ConfScorePBest>
0.0133475 

> <ConfTolerance>
1.06882 

$$$$
ChEBI.****
  PyMOL2.5          3D                             0

 40 42  0  0  0  0  0  0  0  0999 V2000
    9.6299   -9.8599   -2.4279 N   0  0  0  1  0  0  0  0  0  0  0  0
    9.7297   -8.4927   -2.4096 C   0  0  0  1  0  0  0  0  0  0  0  0
    8.7307  -10.6901   -1.6258 C   0  0  0  1  0  0  0  0  0  0  0  0
    7.7465  -10.6581   -2.0444 H   0  0  0  1  0  0  0  0  0  0  0  0
   10.5404  -10.2838   -3.3467 C   0  0  0  1  0  0  0  0  0  0  0  0
   10.6779  -11.2891   -3.5750 H   0  0  0  1  0  0  0  0  0  0  0  0
   10.7282   -8.1773   -3.3409 C   0  0  0  1  0  0  0  0  0  0  0  0
    9.0402   -7.6329   -1.6584 N   0  0  0  1  0  0  0  0  0  0  0  0
    9.1970  -12.0078   -1.5798 O   0  0  0  1  0  0  0  0  0  0  0  0
    8.7081  -10.2003   -0.1692 C   0  0  0  1  0  0  0  0  0  0  0  0
    8.8477   -9.1408   -0.1160 H   0  0  0  1  0  0  0  0  0  0  0  0
   11.2279   -9.3336   -3.9196 N   0  0  0  1  0  0  0  0  0  0  0  0
   11.0126   -6.8219   -3.4791 C   0  0  0  1  0  0  0  0  0  0  0  0
    9.4067   -6.3798   -1.8980 C   0  0  0  1  0  0  0  0  0  0  0  0
    8.9060   -5.6520   -1.3492 H   0  0  0  1  0  0  0  0  0  0  0  0
    9.9203  -12.2593   -0.3619 C   0  0  0  1  0  0  0  0  0  0  0  0
    9.4516  -13.0461    0.1914 H   0  0  0  1  0  0  0  0  0  0  0  0
    9.8827  -10.9393    0.4472 C   0  0  0  1  0  0  0  0  0  0  0  0
   10.7914  -10.3874    0.3265 H   0  0  0  1  0  0  0  0  0  0  0  0
    7.4825  -10.5527    0.4740 O   0  0  0  1  0  0  0  0  0  0  0  0
    7.1039   -9.7749    0.8904 H   0  0  0  1  0  0  0  0  0  0  0  0
   10.3363   -5.9252   -2.7531 N   0  0  0  1  0  0  0  0  0  0  0  0
   11.9678   -6.3423   -4.3361 N   0  0  0  1  0  0  0  0  0  0  0  0
   12.5401   -6.9656   -4.8304 H   0  0  0  1  0  0  0  0  0  0  0  0
   12.0787   -5.3758   -4.4548 H   0  0  0  1  0  0  0  0  0  0  0  0
   11.3510  -12.6428   -0.6721 C   0  0  0  1  0  0  0  0  0  0  0  0
   11.8677  -12.9137    0.2248 H   0  0  0  1  0  0  0  0  0  0  0  0
   11.8607  -11.8303   -1.1464 H   0  0  0  1  0  0  0  0  0  0  0  0
    9.6595  -11.1932    1.8364 O   0  0  0  1  0  0  0  0  0  0  0  0
    8.7362  -11.4153    1.9772 H   0  0  0  1  0  0  0  0  0  0  0  0
   11.2665  -13.7610   -1.5552 O   0  0  0  1  0  0  0  0  0  0  0  0
   12.4810  -14.5455   -2.3292 P   0  0  0  1  0  0  0  0  0  0  0  0
   12.9298  -13.4648   -3.4518 O   0  0  0  1  0  0  0  0  0  0  0  0
   13.6413  -15.2721   -1.7668 O   0  0  0  1  0  0  0  0  0  0  0  0
   11.5683  -15.5161   -3.2507 O   0  5  0  1  0  0  0  0  0  0  0  0
   12.8471  -13.7121   -5.0703 S   0  0  0  1  0  0  0  0  0  0  0  0
   11.5739  -13.2237   -5.4917 O   0  0  0  1  0  0  0  0  0  0  0  0
   11.6611  -12.3142   -5.7864 H   0  0  0  1  0  0  0  0  0  0  0  0
   13.9566  -13.0508   -5.6726 O   0  0  0  1  0  0  0  0  0  0  0  0
   12.9540  -15.1261   -5.0479 O   0  0  0  1  0  0  0  0  0  0  0  0
  1  2  1  0  0  0  0
  1  3  1  0  0  0  0
  1  5  1  0  0  0  0
  2  7  2  0  0  0  0
  2  8  1  0  0  0  0
  3  4  1  0  0  0  0
  3  9  1  0  0  0  0
  3 10  1  0  0  0  0
  5  6  1  0  0  0  0
  5 12  2  0  0  0  0
  7 12  1  0  0  0  0
  7 13  1  0  0  0  0
  8 14  2  0  0  0  0
  9 16  1  0  0  0  0
 10 11  1  0  0  0  0
 10 18  1  0  0  0  0
 10 20  1  0  0  0  0
 13 22  2  0  0  0  0
 13 23  1  0  0  0  0
 14 15  1  0  0  0  0
 14 22  1  0  0  0  0
 16 17  1  0  0  0  0
 16 18  1  0  0  0  0
 16 26  1  0  0  0  0
 18 19  1  0  0  0  0
 18 29  1  0  0  0  0
 20 21  1  0  0  0  0
 23 24  1  0  0  0  0
 23 25  1  0  0  0  0
 26 27  1  0  0  0  0
 26 28  1  0  0  0  0
 26 31  1  0  0  0  0
 29 30  1  0  0  0  0
 31 32  1  0  0  0  0
 32 33  1  0  0  0  0
 32 34  2  0  0  0  0
 32 35  1  0  0  0  0
 33 36  1  0  0  0  0
 36 37  1  0  0  0  0
 36 39  2  0  0  0  0
 36 40  2  0  0  0  0
 37 38  1  0  0  0  0
M  END
> <ConfClashScore>
0 

> <ConfOneFourInteractionScore>
-0.967901 

> <ConfScore>
-0.308603 

> <ConfScorePBest>
0.0132445 

> <ConfTolerance>
0.85402 

$$$$
ChEBI.****
  PyMOL2.5          3D                             0

 40 42  0  0  0  0  0  0  0  0999 V2000
    9.6252   -9.8464   -2.4327 N   0  0  0  1  0  0  0  0  0  0  0  0
    9.7269   -8.4794   -2.4054 C   0  0  0  1  0  0  0  0  0  0  0  0
    8.7475  -10.7275   -1.6571 C   0  0  0  1  0  0  0  0  0  0  0  0
    7.7334  -10.5841   -1.9669 H   0  0  0  1  0  0  0  0  0  0  0  0
   10.5322  -10.2652   -3.3572 C   0  0  0  1  0  0  0  0  0  0  0  0
   10.6677  -11.2691   -3.5927 H   0  0  0  1  0  0  0  0  0  0  0  0
   10.7228   -8.1590   -3.3378 C   0  0  0  1  0  0  0  0  0  0  0  0
    9.0409   -7.6239   -1.6462 N   0  0  0  1  0  0  0  0  0  0  0  0
    9.1243  -12.0633   -1.8291 O   0  0  0  1  0  0  0  0  0  0  0  0
    8.8931  -10.4390   -0.1545 C   0  0  0  1  0  0  0  0  0  0  0  0
    9.1095   -9.4059    0.0210 H   0  0  0  1  0  0  0  0  0  0  0  0
   11.2191   -9.3120   -3.9258 N   0  0  0  1  0  0  0  0  0  0  0  0
   11.0085   -6.8031   -3.4677 C   0  0  0  1  0  0  0  0  0  0  0  0
    9.4083   -6.3697   -1.8785 C   0  0  0  1  0  0  0  0  0  0  0  0
    8.9103   -5.6449   -1.3232 H   0  0  0  1  0  0  0  0  0  0  0  0
    9.9379  -12.5174   -0.7329 C   0  0  0  1  0  0  0  0  0  0  0  0
    9.4692  -13.3445   -0.2418 H   0  0  0  1  0  0  0  0  0  0  0  0
   10.0660  -11.3192    0.2399 C   0  0  0  1  0  0  0  0  0  0  0  0
   10.9954  -10.8077    0.1008 H   0  0  0  1  0  0  0  0  0  0  0  0
    7.7107  -10.8062    0.5577 O   0  0  0  1  0  0  0  0  0  0  0  0
    7.6601  -11.7626    0.6232 H   0  0  0  1  0  0  0  0  0  0  0  0
   10.3357   -5.9104   -2.7335 N   0  0  0  1  0  0  0  0  0  0  0  0
   11.9727   -6.3730   -4.3408 N   0  0  0  1  0  0  0  0  0  0  0  0
   12.4683   -7.0222   -4.8823 H   0  0  0  1  0  0  0  0  0  0  0  0
   12.1668   -5.4160   -4.4238 H   0  0  0  1  0  0  0  0  0  0  0  0
   11.2700  -12.9243   -1.2200 C   0  0  0  1  0  0  0  0  0  0  0  0
   11.9183  -13.0811   -0.3833 H   0  0  0  1  0  0  0  0  0  0  0  0
   11.6695  -12.1502   -1.8413 H   0  0  0  1  0  0  0  0  0  0  0  0
    9.9550  -11.7455    1.5985 O   0  0  0  1  0  0  0  0  0  0  0  0
    9.0417  -11.6701    1.8845 H   0  0  0  1  0  0  0  0  0  0  0  0
   11.1756  -14.1486   -1.9856 O   0  0  0  1  0  0  0  0  0  0  0  0
   12.4678  -14.8603   -2.7020 P   0  0  0  1  0  0  0  0  0  0  0  0
   11.9239  -15.6661   -4.0672 O   0  0  0  1  0  0  0  0  0  0  0  0
   13.5466  -13.8679   -2.9065 O   0  0  0  1  0  0  0  0  0  0  0  0
   12.8779  -15.9624   -1.5877 O   0  5  0  1  0  0  0  0  0  0  0  0
   11.0597  -15.3705   -5.3223 S   0  0  0  1  0  0  0  0  0  0  0  0
   11.5561  -16.3643   -6.2954 O   0  0  0  1  0  0  0  0  0  0  0  0
   11.6421  -17.2184   -5.8656 H   0  0  0  1  0  0  0  0  0  0  0  0
    9.6496  -15.5957   -5.0097 O   0  0  0  1  0  0  0  0  0  0  0  0
   11.3073  -14.0176   -5.7294 O   0  0  0  1  0  0  0  0  0  0  0  0
  1  2  1  0  0  0  0
  1  3  1  0  0  0  0
  1  5  1  0  0  0  0
  2  7  2  0  0  0  0
  2  8  1  0  0  0  0
  3  4  1  0  0  0  0
  3  9  1  0  0  0  0
  3 10  1  0  0  0  0
  5  6  1  0  0  0  0
  5 12  2  0  0  0  0
  7 12  1  0  0  0  0
  7 13  1  0  0  0  0
  8 14  2  0  0  0  0
  9 16  1  0  0  0  0
 10 11  1  0  0  0  0
 10 18  1  0  0  0  0
 10 20  1  0  0  0  0
 13 22  2  0  0  0  0
 13 23  1  0  0  0  0
 14 15  1  0  0  0  0
 14 22  1  0  0  0  0
 16 17  1  0  0  0  0
 16 18  1  0  0  0  0
 16 26  1  0  0  0  0
 18 19  1  0  0  0  0
 18 29  1  0  0  0  0
 20 21  1  0  0  0  0
 23 24  1  0  0  0  0
 23 25  1  0  0  0  0
 26 27  1  0  0  0  0
 26 28  1  0  0  0  0
 26 31  1  0  0  0  0
 29 30  1  0  0  0  0
 31 32  1  0  0  0  0
 32 33  1  0  0  0  0
 32 34  2  0  0  0  0
 32 35  1  0  0  0  0
 33 36  1  0  0  0  0
 36 37  1  0  0  0  0
 36 39  2  0  0  0  0
 36 40  2  0  0  0  0
 37 38  1  0  0  0  0
M  END
> <ConfClashScore>
0 

> <ConfOneFourInteractionScore>
-0.977742 

> <ConfScore>
-0.308394 

> <ConfScorePBest>
0.0131415 

> <ConfTolerance>
0.740277 

$$$$
ChEBI.****
  PyMOL2.5          3D                             0

 40 42  0  0  0  0  0  0  0  0999 V2000
    9.6127   -9.8655   -2.4241 N   0  0  0  1  0  0  0  0  0  0  0  0
    9.7275   -8.4994   -2.4083 C   0  0  0  1  0  0  0  0  0  0  0  0
    8.7000  -10.6918   -1.6098 C   0  0  0  1  0  0  0  0  0  0  0  0
    8.0395  -10.0563   -1.0578 H   0  0  0  1  0  0  0  0  0  0  0  0
   10.5146  -10.3006   -3.3461 C   0  0  0  1  0  0  0  0  0  0  0  0
   10.6402  -11.3077   -3.5734 H   0  0  0  1  0  0  0  0  0  0  0  0
   10.7253   -8.1963   -3.3443 C   0  0  0  1  0  0  0  0  0  0  0  0
    9.0506   -7.6310   -1.6555 N   0  0  0  1  0  0  0  0  0  0  0  0
    7.9755  -11.5770   -2.4201 O   0  0  0  1  0  0  0  0  0  0  0  0
    9.4920  -11.6061   -0.6640 C   0  0  0  1  0  0  0  0  0  0  0  0
   10.4075  -11.9276   -1.1151 H   0  0  0  1  0  0  0  0  0  0  0  0
   11.2099   -9.3588   -3.9233 N   0  0  0  1  0  0  0  0  0  0  0  0
   11.0238   -6.8443   -3.4859 C   0  0  0  1  0  0  0  0  0  0  0  0
    9.4296   -6.3824   -1.8986 C   0  0  0  1  0  0  0  0  0  0  0  0
    8.9393   -5.6483   -1.3488 H   0  0  0  1  0  0  0  0  0  0  0  0
    7.8428  -12.8815   -1.8119 C   0  0  0  1  0  0  0  0  0  0  0  0
    6.8108  -13.1289   -1.6751 H   0  0  0  1  0  0  0  0  0  0  0  0
    8.5514  -12.7645   -0.4592 C   0  0  0  1  0  0  0  0  0  0  0  0
    9.0899  -13.6601   -0.2293 H   0  0  0  1  0  0  0  0  0  0  0  0
    9.7748  -10.9478    0.5716 O   0  0  0  1  0  0  0  0  0  0  0  0
    9.2844  -11.3712    1.2799 H   0  0  0  1  0  0  0  0  0  0  0  0
   10.3604   -5.9391   -2.7584 N   0  0  0  1  0  0  0  0  0  0  0  0
   11.9815   -6.3109   -4.3416 N   0  0  0  1  0  0  0  0  0  0  0  0
   12.0706   -5.3392   -4.4326 H   0  0  0  1  0  0  0  0  0  0  0  0
   12.5672   -6.9067   -4.8538 H   0  0  0  1  0  0  0  0  0  0  0  0
    8.4972  -13.9235   -2.6581 C   0  0  0  1  0  0  0  0  0  0  0  0
    8.4891  -14.8644   -2.1488 H   0  0  0  1  0  0  0  0  0  0  0  0
    9.5072  -13.6401   -2.8690 H   0  0  0  1  0  0  0  0  0  0  0  0
    7.6180  -12.4879    0.5860 O   0  0  0  1  0  0  0  0  0  0  0  0
    7.3420  -13.3112    0.9953 H   0  0  0  1  0  0  0  0  0  0  0  0
    7.7460  -14.0238   -3.8908 O   0  0  0  1  0  0  0  0  0  0  0  0
    8.3334  -14.8703   -5.1668 P   0  0  0  1  0  0  0  0  0  0  0  0
    8.6269  -16.4397   -4.6571 O   0  0  0  1  0  0  0  0  0  0  0  0
    7.3457  -14.9396   -6.2668 O   0  0  0  1  0  0  0  0  0  0  0  0
    9.7042  -14.1064   -5.5687 O   0  5  0  1  0  0  0  0  0  0  0  0
    7.9329  -17.8885   -4.7601 S   0  0  0  1  0  0  0  0  0  0  0  0
    6.5297  -17.5283   -4.8132 O   0  0  0  1  0  0  0  0  0  0  0  0
    6.2146  -17.5992   -5.7173 H   0  0  0  1  0  0  0  0  0  0  0  0
    8.4156  -18.4776   -5.9729 O   0  0  0  1  0  0  0  0  0  0  0  0
    8.3099  -18.5963   -3.5709 O   0  0  0  1  0  0  0  0  0  0  0  0
  1  2  1  0  0  0  0
  1  3  1  0  0  0  0
  1  5  1  0  0  0  0
  2  7  2  0  0  0  0
  2  8  1  0  0  0  0
  3  4  1  0  0  0  0
  3  9  1  0  0  0  0
  3 10  1  0  0  0  0
  5  6  1  0  0  0  0
  5 12  2  0  0  0  0
  7 12  1  0  0  0  0
  7 13  1  0  0  0  0
  8 14  2  0  0  0  0
  9 16  1  0  0  0  0
 10 11  1  0  0  0  0
 10 18  1  0  0  0  0
 10 20  1  0  0  0  0
 13 22  2  0  0  0  0
 13 23  1  0  0  0  0
 14 15  1  0  0  0  0
 14 22  1  0  0  0  0
 16 17  1  0  0  0  0
 16 18  1  0  0  0  0
 16 26  1  0  0  0  0
 18 19  1  0  0  0  0
 18 29  1  0  0  0  0
 20 21  1  0  0  0  0
 23 24  1  0  0  0  0
 23 25  1  0  0  0  0
 26 27  1  0  0  0  0
 26 28  1  0  0  0  0
 26 31  1  0  0  0  0
 29 30  1  0  0  0  0
 31 32  1  0  0  0  0
 32 33  1  0  0  0  0
 32 34  2  0  0  0  0
 32 35  1  0  0  0  0
 33 36  1  0  0  0  0
 36 37  1  0  0  0  0
 36 39  2  0  0  0  0
 36 40  2  0  0  0  0
 37 38  1  0  0  0  0
M  END
> <ConfClashScore>
0 

> <ConfOneFourInteractionScore>
-0.97979 

> <ConfScore>
-0.308173 

> <ConfScorePBest>
0.0130385 

> <ConfTolerance>
0.971227 

$$$$
ChEBI.****
  PyMOL2.5          3D                             0

 40 42  0  0  0  0  0  0  0  0999 V2000
    9.6247   -9.8535   -2.4265 N   0  0  0  1  0  0  0  0  0  0  0  0
    9.7286   -8.4866   -2.4081 C   0  0  0  1  0  0  0  0  0  0  0  0
    8.7288  -10.7430   -1.6335 C   0  0  0  1  0  0  0  0  0  0  0  0
    8.8875  -10.5707   -0.5895 H   0  0  0  1  0  0  0  0  0  0  0  0
   10.5329  -10.2800   -3.3464 C   0  0  0  1  0  0  0  0  0  0  0  0
   10.6672  -11.2856   -3.5750 H   0  0  0  1  0  0  0  0  0  0  0  0
   10.7269   -8.1740   -3.3406 C   0  0  0  1  0  0  0  0  0  0  0  0
    9.0425   -7.6249   -1.6560 N   0  0  0  1  0  0  0  0  0  0  0  0
    7.3305  -10.5175   -1.9881 O   0  0  0  1  0  0  0  0  0  0  0  0
    8.9724  -12.1941   -1.9796 C   0  0  0  1  0  0  0  0  0  0  0  0
    9.9987  -12.3597   -2.2328 H   0  0  0  1  0  0  0  0  0  0  0  0
   11.2225   -9.3317   -3.9200 N   0  0  0  1  0  0  0  0  0  0  0  0
   11.0150   -6.8194   -3.4790 C   0  0  0  1  0  0  0  0  0  0  0  0
    9.4123   -6.3728   -1.8959 C   0  0  0  1  0  0  0  0  0  0  0  0
    8.9144   -5.6436   -1.3464 H   0  0  0  1  0  0  0  0  0  0  0  0
    6.9100  -11.4441   -2.9494 C   0  0  0  1  0  0  0  0  0  0  0  0
    6.0500  -11.9718   -2.5934 H   0  0  0  1  0  0  0  0  0  0  0  0
    8.0633  -12.4304   -3.1931 C   0  0  0  1  0  0  0  0  0  0  0  0
    8.5741  -12.2082   -4.1067 H   0  0  0  1  0  0  0  0  0  0  0  0
    8.6057  -13.0463   -0.8936 O   0  0  0  1  0  0  0  0  0  0  0  0
    7.7613  -12.7634   -0.5352 H   0  0  0  1  0  0  0  0  0  0  0  0
   10.3422   -5.9208   -2.7521 N   0  0  0  1  0  0  0  0  0  0  0  0
   11.9706   -6.3424   -4.3370 N   0  0  0  1  0  0  0  0  0  0  0  0
   12.5249   -6.9674   -4.8494 H   0  0  0  1  0  0  0  0  0  0  0  0
   12.0997   -5.3763   -4.4384 H   0  0  0  1  0  0  0  0  0  0  0  0
    6.5745  -10.7456   -4.2052 C   0  0  0  1  0  0  0  0  0  0  0  0
    5.9520   -9.9038   -3.9846 H   0  0  0  1  0  0  0  0  0  0  0  0
    6.0506  -11.4173   -4.8528 H   0  0  0  1  0  0  0  0  0  0  0  0
    7.5937  -13.7668   -3.2268 O   0  0  0  1  0  0  0  0  0  0  0  0
    8.0594  -14.2530   -3.9111 H   0  0  0  1  0  0  0  0  0  0  0  0
    7.7805  -10.2872   -4.8673 O   0  0  0  1  0  0  0  0  0  0  0  0
    7.7039   -9.2160   -6.1068 P   0  0  0  1  0  0  0  0  0  0  0  0
    9.2125   -8.9914   -6.8016 O   0  0  0  1  0  0  0  0  0  0  0  0
    6.7878   -9.4541   -7.2445 O   0  0  0  1  0  0  0  0  0  0  0  0
    7.3712   -7.8013   -5.3909 O   0  5  0  1  0  0  0  0  0  0  0  0
   10.2792   -7.7623   -7.0608 S   0  0  0  1  0  0  0  0  0  0  0  0
    9.8481   -7.1529   -8.2828 O   0  0  0  1  0  0  0  0  0  0  0  0
    8.9322   -6.8780   -8.1981 H   0  0  0  1  0  0  0  0  0  0  0  0
   10.0597   -6.9611   -5.8990 O   0  0  0  1  0  0  0  0  0  0  0  0
   11.5533   -8.3972   -7.1244 O   0  0  0  1  0  0  0  0  0  0  0  0
  1  2  1  0  0  0  0
  1  3  1  0  0  0  0
  1  5  1  0  0  0  0
  2  7  2  0  0  0  0
  2  8  1  0  0  0  0
  3  4  1  0  0  0  0
  3  9  1  0  0  0  0
  3 10  1  0  0  0  0
  5  6  1  0  0  0  0
  5 12  2  0  0  0  0
  7 12  1  0  0  0  0
  7 13  1  0  0  0  0
  8 14  2  0  0  0  0
  9 16  1  0  0  0  0
 10 11  1  0  0  0  0
 10 18  1  0  0  0  0
 10 20  1  0  0  0  0
 13 22  2  0  0  0  0
 13 23  1  0  0  0  0
 14 15  1  0  0  0  0
 14 22  1  0  0  0  0
 16 17  1  0  0  0  0
 16 18  1  0  0  0  0
 16 26  1  0  0  0  0
 18 19  1  0  0  0  0
 18 29  1  0  0  0  0
 20 21  1  0  0  0  0
 23 24  1  0  0  0  0
 23 25  1  0  0  0  0
 26 27  1  0  0  0  0
 26 28  1  0  0  0  0
 26 31  1  0  0  0  0
 29 30  1  0  0  0  0
 31 32  1  0  0  0  0
 32 33  1  0  0  0  0
 32 34  2  0  0  0  0
 32 35  1  0  0  0  0
 33 36  1  0  0  0  0
 36 37  1  0  0  0  0
 36 39  2  0  0  0  0
 36 40  2  0  0  0  0
 37 38  1  0  0  0  0
M  END
> <ConfClashScore>
0 

> <ConfOneFourInteractionScore>
-0.9804 

> <ConfScore>
-0.308044 

> <ConfScorePBest>
0.0129355 

> <ConfTolerance>
0.967404 

$$$$
ChEBI.****
  PyMOL2.5          3D                             0

 40 42  0  0  0  0  0  0  0  0999 V2000
    9.6331   -9.8648   -2.4352 N   0  0  0  1  0  0  0  0  0  0  0  0
    9.7323   -8.4975   -2.4130 C   0  0  0  1  0  0  0  0  0  0  0  0
    8.7050  -10.6565   -1.6026 C   0  0  0  1  0  0  0  0  0  0  0  0
    8.1313   -9.9991   -0.9833 H   0  0  0  1  0  0  0  0  0  0  0  0
   10.5434  -10.2856   -3.3555 C   0  0  0  1  0  0  0  0  0  0  0  0
   10.6814  -11.2901   -3.5867 H   0  0  0  1  0  0  0  0  0  0  0  0
   10.7302   -8.1790   -3.3438 C   0  0  0  1  0  0  0  0  0  0  0  0
    9.0427   -7.6403   -1.6590 N   0  0  0  1  0  0  0  0  0  0  0  0
    7.8602  -11.4236   -2.4111 O   0  0  0  1  0  0  0  0  0  0  0  0
    9.4855  -11.6594   -0.7381 C   0  0  0  1  0  0  0  0  0  0  0  0
   10.4443  -11.2702   -0.4660 H   0  0  0  1  0  0  0  0  0  0  0  0
   11.2302   -9.3334   -3.9260 N   0  0  0  1  0  0  0  0  0  0  0  0
   11.0138   -6.8231   -3.4783 C   0  0  0  1  0  0  0  0  0  0  0  0
    9.4084   -6.3863   -1.8953 C   0  0  0  1  0  0  0  0  0  0  0  0
    8.9076   -5.6603   -1.3442 H   0  0  0  1  0  0  0  0  0  0  0  0
    8.3353  -12.7773   -2.5196 C   0  0  0  1  0  0  0  0  0  0  0  0
    7.5994  -13.4589   -2.1473 H   0  0  0  1  0  0  0  0  0  0  0  0
    9.6222  -12.8570   -1.6617 C   0  0  0  1  0  0  0  0  0  0  0  0
   10.4976  -12.7753   -2.2716 H   0  0  0  1  0  0  0  0  0  0  0  0
    8.7564  -11.9993    0.4421 O   0  0  0  1  0  0  0  0  0  0  0  0
    9.0600  -12.8477    0.7732 H   0  0  0  1  0  0  0  0  0  0  0  0
   10.3373   -5.9288   -2.7495 N   0  0  0  1  0  0  0  0  0  0  0  0
   11.9683   -6.3405   -4.3344 N   0  0  0  1  0  0  0  0  0  0  0  0
   12.5161   -6.9619   -4.8580 H   0  0  0  1  0  0  0  0  0  0  0  0
   12.1033   -5.3739   -4.4231 H   0  0  0  1  0  0  0  0  0  0  0  0
    8.6427  -13.1044   -3.9438 C   0  0  0  1  0  0  0  0  0  0  0  0
    9.1416  -14.0492   -4.0012 H   0  0  0  1  0  0  0  0  0  0  0  0
    9.2670  -12.3447   -4.3657 H   0  0  0  1  0  0  0  0  0  0  0  0
    9.6706  -14.0762   -0.9192 O   0  0  0  1  0  0  0  0  0  0  0  0
   10.5042  -14.1304   -0.4461 H   0  0  0  1  0  0  0  0  0  0  0  0
    7.3876  -13.1655   -4.6613 O   0  0  0  1  0  0  0  0  0  0  0  0
    7.2917  -13.2219   -6.2976 P   0  0  0  1  0  0  0  0  0  0  0  0
    8.2001  -14.5874   -6.6427 O   0  0  0  1  0  0  0  0  0  0  0  0
    5.9138  -13.4010   -6.8070 O   0  0  0  1  0  0  0  0  0  0  0  0
    8.0631  -11.9098   -6.8522 O   0  5  0  1  0  0  0  0  0  0  0  0
    8.4286  -16.0683   -6.0430 S   0  0  0  1  0  0  0  0  0  0  0  0
    9.7599  -16.0757   -5.4735 O   0  0  0  1  0  0  0  0  0  0  0  0
    9.7148  -15.8180   -4.5498 H   0  0  0  1  0  0  0  0  0  0  0  0
    7.3912  -16.2845   -5.0945 O   0  0  0  1  0  0  0  0  0  0  0  0
    8.3290  -16.7750   -7.2713 O   0  0  0  1  0  0  0  0  0  0  0  0
  1  2  1  0  0  0  0
  1  3  1  0  0  0  0
  1  5  1  0  0  0  0
  2  7  2  0  0  0  0
  2  8  1  0  0  0  0
  3  4  1  0  0  0  0
  3  9  1  0  0  0  0
  3 10  1  0  0  0  0
  5  6  1  0  0  0  0
  5 12  2  0  0  0  0
  7 12  1  0  0  0  0
  7 13  1  0  0  0  0
  8 14  2  0  0  0  0
  9 16  1  0  0  0  0
 10 11  1  0  0  0  0
 10 18  1  0  0  0  0
 10 20  1  0  0  0  0
 13 22  2  0  0  0  0
 13 23  1  0  0  0  0
 14 15  1  0  0  0  0
 14 22  1  0  0  0  0
 16 17  1  0  0  0  0
 16 18  1  0  0  0  0
 16 26  1  0  0  0  0
 18 19  1  0  0  0  0
 18 29  1  0  0  0  0
 20 21  1  0  0  0  0
 23 24  1  0  0  0  0
 23 25  1  0  0  0  0
 26 27  1  0  0  0  0
 26 28  1  0  0  0  0
 26 31  1  0  0  0  0
 29 30  1  0  0  0  0
 31 32  1  0  0  0  0
 32 33  1  0  0  0  0
 32 34  2  0  0  0  0
 32 35  1  0  0  0  0
 33 36  1  0  0  0  0
 36 37  1  0  0  0  0
 36 39  2  0  0  0  0
 36 40  2  0  0  0  0
 37 38  1  0  0  0  0
M  END
> <ConfClashScore>
0 

> <ConfOneFourInteractionScore>
-0.97979 

> <ConfScore>
-0.307187 

> <ConfScorePBest>
0.0128325 

> <ConfTolerance>
1.00135 

$$$$
ChEBI.****
  PyMOL2.5          3D                             0

 40 42  0  0  0  0  0  0  0  0999 V2000
    9.6279   -9.8580   -2.4271 N   0  0  0  1  0  0  0  0  0  0  0  0
    9.7296   -8.4908   -2.4096 C   0  0  0  1  0  0  0  0  0  0  0  0
    8.7198  -10.6937   -1.6173 C   0  0  0  1  0  0  0  0  0  0  0  0
    7.7125  -10.5512   -1.9488 H   0  0  0  1  0  0  0  0  0  0  0  0
   10.5377  -10.2837   -3.3457 C   0  0  0  1  0  0  0  0  0  0  0  0
   10.6739  -11.2893   -3.5734 H   0  0  0  1  0  0  0  0  0  0  0  0
   10.7284   -8.1774   -3.3413 C   0  0  0  1  0  0  0  0  0  0  0  0
    9.0414   -7.6297   -1.6589 N   0  0  0  1  0  0  0  0  0  0  0  0
    9.0831  -12.0451   -1.6995 O   0  0  0  1  0  0  0  0  0  0  0  0
    8.8546  -10.3554   -0.1256 C   0  0  0  1  0  0  0  0  0  0  0  0
    9.8616  -10.0900    0.1203 H   0  0  0  1  0  0  0  0  0  0  0  0
   11.2264   -9.3347   -3.9192 N   0  0  0  1  0  0  0  0  0  0  0  0
   11.0146   -6.8225   -3.4804 C   0  0  0  1  0  0  0  0  0  0  0  0
    9.4095   -6.3772   -1.8994 C   0  0  0  1  0  0  0  0  0  0  0  0
    8.9099   -5.6484   -1.3509 H   0  0  0  1  0  0  0  0  0  0  0  0
    8.9711  -12.7139   -0.4230 C   0  0  0  1  0  0  0  0  0  0  0  0
    8.2807  -13.5290   -0.4854 H   0  0  0  1  0  0  0  0  0  0  0  0
    8.4540  -11.6441    0.5433 C   0  0  0  1  0  0  0  0  0  0  0  0
    8.9169  -11.7382    1.5034 H   0  0  0  1  0  0  0  0  0  0  0  0
    7.9773   -9.2900    0.2422 O   0  0  0  1  0  0  0  0  0  0  0  0
    7.5877   -9.4770    1.0994 H   0  0  0  1  0  0  0  0  0  0  0  0
   10.3396   -5.9244   -2.7548 N   0  0  0  1  0  0  0  0  0  0  0  0
   11.9703   -6.3447   -4.3378 N   0  0  0  1  0  0  0  0  0  0  0  0
   12.1626   -5.3843   -4.3712 H   0  0  0  1  0  0  0  0  0  0  0  0
   12.4617   -6.9632   -4.9177 H   0  0  0  1  0  0  0  0  0  0  0  0
   10.3032  -13.2218    0.0213 C   0  0  0  1  0  0  0  0  0  0  0  0
   11.0347  -12.4452   -0.0594 H   0  0  0  1  0  0  0  0  0  0  0  0
   10.5968  -14.0534   -0.5848 H   0  0  0  1  0  0  0  0  0  0  0  0
    7.0354  -11.7269    0.6878 O   0  0  0  1  0  0  0  0  0  0  0  0
    6.6990  -12.4421    0.1429 H   0  0  0  1  0  0  0  0  0  0  0  0
   10.1767  -13.6382    1.4013 O   0  0  0  1  0  0  0  0  0  0  0  0
   11.5765  -13.9899    2.1800 P   0  0  0  1  0  0  0  0  0  0  0  0
   11.0539  -14.6305    3.6379 O   0  0  0  1  0  0  0  0  0  0  0  0
   12.3273  -15.0412    1.4578 O   0  0  0  1  0  0  0  0  0  0  0  0
   12.3350  -12.5824    2.4408 O   0  5  0  1  0  0  0  0  0  0  0  0
   10.9926  -16.0901    4.3852 S   0  0  0  1  0  0  0  0  0  0  0  0
   10.5092  -16.8741    3.2657 O   0  0  0  1  0  0  0  0  0  0  0  0
   11.0245  -16.6665    2.4828 H   0  0  0  1  0  0  0  0  0  0  0  0
   12.3199  -16.4218    4.8088 O   0  0  0  1  0  0  0  0  0  0  0  0
   10.0441  -15.9666    5.4296 O   0  0  0  1  0  0  0  0  0  0  0  0
  1  2  1  0  0  0  0
  1  3  1  0  0  0  0
  1  5  1  0  0  0  0
  2  7  2  0  0  0  0
  2  8  1  0  0  0  0
  3  4  1  0  0  0  0
  3  9  1  0  0  0  0
  3 10  1  0  0  0  0
  5  6  1  0  0  0  0
  5 12  2  0  0  0  0
  7 12  1  0  0  0  0
  7 13  1  0  0  0  0
  8 14  2  0  0  0  0
  9 16  1  0  0  0  0
 10 11  1  0  0  0  0
 10 18  1  0  0  0  0
 10 20  1  0  0  0  0
 13 22  2  0  0  0  0
 13 23  1  0  0  0  0
 14 15  1  0  0  0  0
 14 22  1  0  0  0  0
 16 17  1  0  0  0  0
 16 18  1  0  0  0  0
 16 26  1  0  0  0  0
 18 19  1  0  0  0  0
 18 29  1  0  0  0  0
 20 21  1  0  0  0  0
 23 24  1  0  0  0  0
 23 25  1  0  0  0  0
 26 27  1  0  0  0  0
 26 28  1  0  0  0  0
 26 31  1  0  0  0  0
 29 30  1  0  0  0  0
 31 32  1  0  0  0  0
 32 33  1  0  0  0  0
 32 34  2  0  0  0  0
 32 35  1  0  0  0  0
 33 36  1  0  0  0  0
 36 37  1  0  0  0  0
 36 39  2  0  0  0  0
 36 40  2  0  0  0  0
 37 38  1  0  0  0  0
M  END
> <ConfClashScore>
0 

> <ConfOneFourInteractionScore>
-0.977742 

> <ConfScore>
-0.306464 

> <ConfScorePBest>
0.0127295 

> <ConfTolerance>
0.815645 

$$$$
ChEBI.****
  PyMOL2.5          3D                             0

 40 42  0  0  0  0  0  0  0  0999 V2000
    9.6233   -9.8581   -2.4308 N   0  0  0  1  0  0  0  0  0  0  0  0
    9.7292   -8.4913   -2.4090 C   0  0  0  1  0  0  0  0  0  0  0  0
    8.7229  -10.6865   -1.6283 C   0  0  0  1  0  0  0  0  0  0  0  0
    8.9438  -10.5518   -0.5901 H   0  0  0  1  0  0  0  0  0  0  0  0
   10.5293  -10.2834   -3.3533 C   0  0  0  1  0  0  0  0  0  0  0  0
   10.6618  -11.2886   -3.5848 H   0  0  0  1  0  0  0  0  0  0  0  0
   10.7263   -8.1777   -3.3424 C   0  0  0  1  0  0  0  0  0  0  0  0
    9.0456   -7.6306   -1.6535 N   0  0  0  1  0  0  0  0  0  0  0  0
    7.3536  -10.3289   -1.8934 O   0  0  0  1  0  0  0  0  0  0  0  0
    8.8793  -12.1458   -2.0093 C   0  0  0  1  0  0  0  0  0  0  0  0
    9.8318  -12.3259   -2.4623 H   0  0  0  1  0  0  0  0  0  0  0  0
   11.2193   -9.3346   -3.9256 N   0  0  0  1  0  0  0  0  0  0  0  0
   11.0162   -6.8232   -3.4777 C   0  0  0  1  0  0  0  0  0  0  0  0
    9.4168   -6.3785   -1.8908 C   0  0  0  1  0  0  0  0  0  0  0  0
    8.9209   -5.6500   -1.3385 H   0  0  0  1  0  0  0  0  0  0  0  0
    6.6639  -11.4617   -2.4335 C   0  0  0  1  0  0  0  0  0  0  0  0
    6.1234  -11.9732   -1.6646 H   0  0  0  1  0  0  0  0  0  0  0  0
    7.7512  -12.3561   -3.0051 C   0  0  0  1  0  0  0  0  0  0  0  0
    8.0359  -12.0440   -3.9882 H   0  0  0  1  0  0  0  0  0  0  0  0
    8.7250  -12.9941   -0.8705 O   0  0  0  1  0  0  0  0  0  0  0  0
    9.5900  -13.2377   -0.5329 H   0  0  0  1  0  0  0  0  0  0  0  0
   10.3459   -5.9255   -2.7473 N   0  0  0  1  0  0  0  0  0  0  0  0
   11.9709   -6.3453   -4.3362 N   0  0  0  1  0  0  0  0  0  0  0  0
   12.1080   -5.3793   -4.4279 H   0  0  0  1  0  0  0  0  0  0  0  0
   12.5168   -6.9695   -4.8585 H   0  0  0  1  0  0  0  0  0  0  0  0
    5.7297  -11.0404   -3.4952 C   0  0  0  1  0  0  0  0  0  0  0  0
    5.1399  -11.8799   -3.7991 H   0  0  0  1  0  0  0  0  0  0  0  0
    6.2884  -10.6750   -4.3314 H   0  0  0  1  0  0  0  0  0  0  0  0
    7.3361  -13.7223   -3.0402 O   0  0  0  1  0  0  0  0  0  0  0  0
    6.3772  -13.7663   -3.0303 H   0  0  0  1  0  0  0  0  0  0  0  0
    4.8504   -9.9877   -3.0097 O   0  0  0  1  0  0  0  0  0  0  0  0
    3.6549   -9.3869   -3.9580 P   0  0  0  1  0  0  0  0  0  0  0  0
    4.5073   -8.6767   -5.1407 O   0  0  0  1  0  0  0  0  0  0  0  0
    2.6197  -10.4251   -4.1604 O   0  0  0  1  0  0  0  0  0  0  0  0
    2.9998   -8.2691   -2.9855 O   0  5  0  1  0  0  0  0  0  0  0  0
    3.8812   -8.1147   -6.5052 S   0  0  0  1  0  0  0  0  0  0  0  0
    4.0871   -6.6800   -6.5003 O   0  0  0  1  0  0  0  0  0  0  0  0
    5.0279   -6.4911   -6.5318 H   0  0  0  1  0  0  0  0  0  0  0  0
    4.6911   -8.8024   -7.4803 O   0  0  0  1  0  0  0  0  0  0  0  0
    2.4936   -8.4732   -6.5106 O   0  0  0  1  0  0  0  0  0  0  0  0
  1  2  1  0  0  0  0
  1  3  1  0  0  0  0
  1  5  1  0  0  0  0
  2  7  2  0  0  0  0
  2  8  1  0  0  0  0
  3  4  1  0  0  0  0
  3  9  1  0  0  0  0
  3 10  1  0  0  0  0
  5  6  1  0  0  0  0
  5 12  2  0  0  0  0
  7 12  1  0  0  0  0
  7 13  1  0  0  0  0
  8 14  2  0  0  0  0
  9 16  1  0  0  0  0
 10 11  1  0  0  0  0
 10 18  1  0  0  0  0
 10 20  1  0  0  0  0
 13 22  2  0  0  0  0
 13 23  1  0  0  0  0
 14 15  1  0  0  0  0
 14 22  1  0  0  0  0
 16 17  1  0  0  0  0
 16 18  1  0  0  0  0
 16 26  1  0  0  0  0
 18 19  1  0  0  0  0
 18 29  1  0  0  0  0
 20 21  1  0  0  0  0
 23 24  1  0  0  0  0
 23 25  1  0  0  0  0
 26 27  1  0  0  0  0
 26 28  1  0  0  0  0
 26 31  1  0  0  0  0
 29 30  1  0  0  0  0
 31 32  1  0  0  0  0
 32 33  1  0  0  0  0
 32 34  2  0  0  0  0
 32 35  1  0  0  0  0
 33 36  1  0  0  0  0
 36 37  1  0  0  0  0
 36 39  2  0  0  0  0
 36 40  2  0  0  0  0
 37 38  1  0  0  0  0
M  END
> <ConfClashScore>
0 

> <ConfOneFourInteractionScore>
-0.979734 

> <ConfScore>
-0.306354 

> <ConfScorePBest>
0.0126265 

> <ConfTolerance>
0.888263 

$$$$
ChEBI.****
  PyMOL2.5          3D                             0

 40 42  0  0  0  0  0  0  0  0999 V2000
    9.6311   -9.8612   -2.4240 N   0  0  0  1  0  0  0  0  0  0  0  0
    9.7288   -8.4937   -2.4082 C   0  0  0  1  0  0  0  0  0  0  0  0
    8.7503  -10.6748   -1.6372 C   0  0  0  1  0  0  0  0  0  0  0  0
    9.3268  -11.3358   -1.0243 H   0  0  0  1  0  0  0  0  0  0  0  0
   10.5433  -10.2854   -3.3410 C   0  0  0  1  0  0  0  0  0  0  0  0
   10.6826  -11.2908   -3.5673 H   0  0  0  1  0  0  0  0  0  0  0  0
   10.7277   -8.1785   -3.3391 C   0  0  0  1  0  0  0  0  0  0  0  0
    9.0371   -7.6336   -1.6594 N   0  0  0  1  0  0  0  0  0  0  0  0
    7.9448   -9.8613   -0.8317 O   0  0  0  1  0  0  0  0  0  0  0  0
    7.8291  -11.4889   -2.5595 C   0  0  0  1  0  0  0  0  0  0  0  0
    8.1959  -11.4932   -3.5646 H   0  0  0  1  0  0  0  0  0  0  0  0
   11.2298   -9.3351   -3.9150 N   0  0  0  1  0  0  0  0  0  0  0  0
   11.0101   -6.8230   -3.4796 C   0  0  0  1  0  0  0  0  0  0  0  0
    9.4018   -6.3804   -1.9010 C   0  0  0  1  0  0  0  0  0  0  0  0
    8.8994   -5.6523   -1.3541 H   0  0  0  1  0  0  0  0  0  0  0  0
    6.5315  -10.1393   -1.0705 C   0  0  0  1  0  0  0  0  0  0  0  0
    6.1557  -10.8367   -0.3512 H   0  0  0  1  0  0  0  0  0  0  0  0
    6.4974  -10.7329   -2.4601 C   0  0  0  1  0  0  0  0  0  0  0  0
    6.4375   -9.9647   -3.2026 H   0  0  0  1  0  0  0  0  0  0  0  0
    7.6937  -12.8330   -2.0956 O   0  0  0  1  0  0  0  0  0  0  0  0
    7.8963  -12.8703   -1.1579 H   0  0  0  1  0  0  0  0  0  0  0  0
   10.3316   -5.9259   -2.7560 N   0  0  0  1  0  0  0  0  0  0  0  0
   11.9654   -6.3434   -4.3365 N   0  0  0  1  0  0  0  0  0  0  0  0
   12.5649   -6.9652   -4.7995 H   0  0  0  1  0  0  0  0  0  0  0  0
   12.0492   -5.3786   -4.4865 H   0  0  0  1  0  0  0  0  0  0  0  0
    5.7240   -8.8755   -1.0123 C   0  0  0  1  0  0  0  0  0  0  0  0
    5.7750   -8.4339   -0.0390 H   0  0  0  1  0  0  0  0  0  0  0  0
    4.7017   -9.0632   -1.2663 H   0  0  0  1  0  0  0  0  0  0  0  0
    5.3918  -11.6252   -2.6069 O   0  0  0  1  0  0  0  0  0  0  0  0
    5.6627  -12.5137   -2.3647 H   0  0  0  1  0  0  0  0  0  0  0  0
    6.3574   -8.0205   -2.0047 O   0  0  0  1  0  0  0  0  0  0  0  0
    5.7102   -6.5656   -2.3969 P   0  0  0  1  0  0  0  0  0  0  0  0
    6.6393   -5.7772   -3.4668 O   0  0  0  1  0  0  0  0  0  0  0  0
    4.3176   -6.6437   -2.8917 O   0  0  0  1  0  0  0  0  0  0  0  0
    5.7510   -5.6415   -1.0669 O   0  5  0  1  0  0  0  0  0  0  0  0
    6.0938   -4.8529   -4.6149 S   0  0  0  1  0  0  0  0  0  0  0  0
    7.0078   -3.7208   -4.4255 O   0  0  0  1  0  0  0  0  0  0  0  0
    7.9094   -4.0441   -4.3610 H   0  0  0  1  0  0  0  0  0  0  0  0
    6.2940   -5.4331   -5.8724 O   0  0  0  1  0  0  0  0  0  0  0  0
    4.7951   -4.4660   -4.1883 O   0  0  0  1  0  0  0  0  0  0  0  0
  1  2  1  0  0  0  0
  1  3  1  0  0  0  0
  1  5  1  0  0  0  0
  2  7  2  0  0  0  0
  2  8  1  0  0  0  0
  3  4  1  0  0  0  0
  3  9  1  0  0  0  0
  3 10  1  0  0  0  0
  5  6  1  0  0  0  0
  5 12  2  0  0  0  0
  7 12  1  0  0  0  0
  7 13  1  0  0  0  0
  8 14  2  0  0  0  0
  9 16  1  0  0  0  0
 10 11  1  0  0  0  0
 10 18  1  0  0  0  0
 10 20  1  0  0  0  0
 13 22  2  0  0  0  0
 13 23  1  0  0  0  0
 14 15  1  0  0  0  0
 14 22  1  0  0  0  0
 16 17  1  0  0  0  0
 16 18  1  0  0  0  0
 16 26  1  0  0  0  0
 18 19  1  0  0  0  0
 18 29  1  0  0  0  0
 20 21  1  0  0  0  0
 23 24  1  0  0  0  0
 23 25  1  0  0  0  0
 26 27  1  0  0  0  0
 26 28  1  0  0  0  0
 26 31  1  0  0  0  0
 29 30  1  0  0  0  0
 31 32  1  0  0  0  0
 32 33  1  0  0  0  0
 32 34  2  0  0  0  0
 32 35  1  0  0  0  0
 33 36  1  0  0  0  0
 36 37  1  0  0  0  0
 36 39  2  0  0  0  0
 36 40  2  0  0  0  0
 37 38  1  0  0  0  0
M  END
> <ConfClashScore>
0 

> <ConfOneFourInteractionScore>
-0.974459 

> <ConfScore>
-0.306111 

> <ConfScorePBest>
0.0125235 

> <ConfTolerance>
1.02741 

$$$$
ChEBI.****
  PyMOL2.5          3D                             0

 40 42  0  0  0  0  0  0  0  0999 V2000
    9.6120   -9.8377   -2.4518 N   0  0  0  1  0  0  0  0  0  0  0  0
    9.7148   -8.4710   -2.4136 C   0  0  0  1  0  0  0  0  0  0  0  0
    8.8013  -10.7393   -1.6148 C   0  0  0  1  0  0  0  0  0  0  0  0
    8.9088  -10.4647   -0.5862 H   0  0  0  1  0  0  0  0  0  0  0  0
   10.5235  -10.2504   -3.3746 C   0  0  0  1  0  0  0  0  0  0  0  0
   10.6593  -11.2526   -3.6170 H   0  0  0  1  0  0  0  0  0  0  0  0
   10.7161   -8.1446   -3.3382 C   0  0  0  1  0  0  0  0  0  0  0  0
    9.0256   -7.6205   -1.6517 N   0  0  0  1  0  0  0  0  0  0  0  0
    7.4556  -10.6551   -1.9909 O   0  0  0  1  0  0  0  0  0  0  0  0
    9.2599  -12.1922   -1.8174 C   0  0  0  1  0  0  0  0  0  0  0  0
   10.2154  -12.2315   -2.2973 H   0  0  0  1  0  0  0  0  0  0  0  0
   11.2144   -9.2936   -3.9323 N   0  0  0  1  0  0  0  0  0  0  0  0
   11.0038   -6.7880   -3.4563 C   0  0  0  1  0  0  0  0  0  0  0  0
    9.3954   -6.3650   -1.8725 C   0  0  0  1  0  0  0  0  0  0  0  0
    8.8952   -5.6440   -1.3144 H   0  0  0  1  0  0  0  0  0  0  0  0
    6.9358  -11.9740   -2.3402 C   0  0  0  1  0  0  0  0  0  0  0  0
    6.4400  -12.4197   -1.5033 H   0  0  0  1  0  0  0  0  0  0  0  0
    8.1628  -12.7699   -2.7216 C   0  0  0  1  0  0  0  0  0  0  0  0
    8.4046  -12.6284   -3.7543 H   0  0  0  1  0  0  0  0  0  0  0  0
    9.3221  -12.8906   -0.5731 O   0  0  0  1  0  0  0  0  0  0  0  0
    9.0266  -12.3125    0.1341 H   0  0  0  1  0  0  0  0  0  0  0  0
   10.3279   -5.9002   -2.7190 N   0  0  0  1  0  0  0  0  0  0  0  0
   11.9882   -6.3975   -4.3402 N   0  0  0  1  0  0  0  0  0  0  0  0
   12.4442   -7.0663   -4.8925 H   0  0  0  1  0  0  0  0  0  0  0  0
   12.2315   -5.4512   -4.4159 H   0  0  0  1  0  0  0  0  0  0  0  0
    5.9873  -11.8811   -3.4899 C   0  0  0  1  0  0  0  0  0  0  0  0
    6.5036  -11.5362   -4.3613 H   0  0  0  1  0  0  0  0  0  0  0  0
    5.1935  -11.2036   -3.2536 H   0  0  0  1  0  0  0  0  0  0  0  0
    7.9691  -14.1613   -2.4636 O   0  0  0  1  0  0  0  0  0  0  0  0
    7.5675  -14.2741   -1.5989 H   0  0  0  1  0  0  0  0  0  0  0  0
    5.4557  -13.1949   -3.7241 O   0  0  0  1  0  0  0  0  0  0  0  0
    4.1555  -13.5380   -4.6629 P   0  0  0  1  0  0  0  0  0  0  0  0
    3.8794  -15.1347   -4.6015 O   0  0  0  1  0  0  0  0  0  0  0  0
    3.0710  -12.6609   -4.1680 O   0  0  0  1  0  0  0  0  0  0  0  0
    4.5293  -13.1786   -6.1977 O   0  5  0  1  0  0  0  0  0  0  0  0
    3.3198  -15.9717   -5.7646 S   0  0  0  1  0  0  0  0  0  0  0  0
    3.1350  -17.2744   -5.2163 O   0  0  0  1  0  0  0  0  0  0  0  0
    2.2080  -17.4039   -5.0034 H   0  0  0  1  0  0  0  0  0  0  0  0
    2.1794  -15.2265   -5.7872 O   0  0  0  1  0  0  0  0  0  0  0  0
    4.3356  -15.8641   -6.6517 O   0  0  0  1  0  0  0  0  0  0  0  0
  1  2  1  0  0  0  0
  1  3  1  0  0  0  0
  1  5  1  0  0  0  0
  2  7  2  0  0  0  0
  2  8  1  0  0  0  0
  3  4  1  0  0  0  0
  3  9  1  0  0  0  0
  3 10  1  0  0  0  0
  5  6  1  0  0  0  0
  5 12  2  0  0  0  0
  7 12  1  0  0  0  0
  7 13  1  0  0  0  0
  8 14  2  0  0  0  0
  9 16  1  0  0  0  0
 10 11  1  0  0  0  0
 10 18  1  0  0  0  0
 10 20  1  0  0  0  0
 13 22  2  0  0  0  0
 13 23  1  0  0  0  0
 14 15  1  0  0  0  0
 14 22  1  0  0  0  0
 16 17  1  0  0  0  0
 16 18  1  0  0  0  0
 16 26  1  0  0  0  0
 18 19  1  0  0  0  0
 18 29  1  0  0  0  0
 20 21  1  0  0  0  0
 23 24  1  0  0  0  0
 23 25  1  0  0  0  0
 26 27  1  0  0  0  0
 26 28  1  0  0  0  0
 26 31  1  0  0  0  0
 29 30  1  0  0  0  0
 31 32  1  0  0  0  0
 32 33  1  0  0  0  0
 32 34  2  0  0  0  0
 32 35  1  0  0  0  0
 33 36  1  0  0  0  0
 36 37  1  0  0  0  0
 36 39  2  0  0  0  0
 36 40  2  0  0  0  0
 37 38  1  0  0  0  0
M  END
> <ConfClashScore>
0 

> <ConfOneFourInteractionScore>
-0.965632 

> <ConfScore>
-0.305515 

> <ConfScorePBest>
0.0124205 

> <ConfTolerance>
1.04387 

$$$$
ChEBI.****
  PyMOL2.5          3D                             0

 40 42  0  0  0  0  0  0  0  0999 V2000
    9.6100   -9.8762   -2.4230 N   0  0  0  1  0  0  0  0  0  0  0  0
    9.7286   -8.5104   -2.4106 C   0  0  0  1  0  0  0  0  0  0  0  0
    8.6830  -10.6418   -1.5889 C   0  0  0  1  0  0  0  0  0  0  0  0
    7.6780  -10.4462   -1.8998 H   0  0  0  1  0  0  0  0  0  0  0  0
   10.5103  -10.3162   -3.3442 C   0  0  0  1  0  0  0  0  0  0  0  0
   10.6330  -11.3241   -3.5691 H   0  0  0  1  0  0  0  0  0  0  0  0
   10.7270   -8.2124   -3.3477 C   0  0  0  1  0  0  0  0  0  0  0  0
    9.0545   -7.6383   -1.6596 N   0  0  0  1  0  0  0  0  0  0  0  0
    8.9669  -12.0126   -1.6605 O   0  0  0  1  0  0  0  0  0  0  0  0
    8.8711  -10.2930   -0.1054 C   0  0  0  1  0  0  0  0  0  0  0  0
    9.8969  -10.0824    0.1143 H   0  0  0  1  0  0  0  0  0  0  0  0
   11.2081   -9.3777   -3.9241 N   0  0  0  1  0  0  0  0  0  0  0  0
   11.0293   -6.8616   -3.4927 C   0  0  0  1  0  0  0  0  0  0  0  0
    9.4370   -6.3913   -1.9060 C   0  0  0  1  0  0  0  0  0  0  0  0
    8.9489   -5.6545   -1.3578 H   0  0  0  1  0  0  0  0  0  0  0  0
    8.8466  -12.6578   -0.3727 C   0  0  0  1  0  0  0  0  0  0  0  0
    8.1098  -13.4329   -0.4083 H   0  0  0  1  0  0  0  0  0  0  0  0
    8.4135  -11.5482    0.5901 C   0  0  0  1  0  0  0  0  0  0  0  0
    8.8923  -11.6565    1.5408 H   0  0  0  1  0  0  0  0  0  0  0  0
    8.0644   -9.1747    0.2670 O   0  0  0  1  0  0  0  0  0  0  0  0
    7.2759   -9.1519   -0.2803 H   0  0  0  1  0  0  0  0  0  0  0  0
   10.3687   -5.9528   -2.7671 N   0  0  0  1  0  0  0  0  0  0  0  0
   11.9823   -6.2888   -4.3400 N   0  0  0  1  0  0  0  0  0  0  0  0
   12.0384   -5.3143   -4.4265 H   0  0  0  1  0  0  0  0  0  0  0  0
   12.5943   -6.8618   -4.8474 H   0  0  0  1  0  0  0  0  0  0  0  0
   10.1421  -13.2285    0.0439 C   0  0  0  1  0  0  0  0  0  0  0  0
   10.8976  -12.4738   -0.0238 H   0  0  0  1  0  0  0  0  0  0  0  0
   10.3923  -14.0434   -0.6028 H   0  0  0  1  0  0  0  0  0  0  0  0
    6.9962  -11.5480    0.7673 O   0  0  0  1  0  0  0  0  0  0  0  0
    6.5954  -12.1602    0.1458 H   0  0  0  1  0  0  0  0  0  0  0  0
   10.0680  -13.7076    1.4073 O   0  0  0  1  0  0  0  0  0  0  0  0
   11.3961  -14.4077    2.0673 P   0  0  0  1  0  0  0  0  0  0  0  0
   12.5612  -13.2160    2.2441 O   0  0  0  1  0  0  0  0  0  0  0  0
   10.9555  -14.9631    3.3665 O   0  0  0  1  0  0  0  0  0  0  0  0
   12.0527  -15.4500    1.0152 O   0  5  0  1  0  0  0  0  0  0  0  0
   13.0686  -12.2240    3.3521 S   0  0  0  1  0  0  0  0  0  0  0  0
   11.8235  -11.7126    3.8905 O   0  0  0  1  0  0  0  0  0  0  0  0
   11.1838  -11.6152    3.1813 H   0  0  0  1  0  0  0  0  0  0  0  0
   13.8418  -12.9953    4.2973 O   0  0  0  1  0  0  0  0  0  0  0  0
   13.8388  -11.1975    2.7067 O   0  0  0  1  0  0  0  0  0  0  0  0
  1  2  1  0  0  0  0
  1  3  1  0  0  0  0
  1  5  1  0  0  0  0
  2  7  2  0  0  0  0
  2  8  1  0  0  0  0
  3  4  1  0  0  0  0
  3  9  1  0  0  0  0
  3 10  1  0  0  0  0
  5  6  1  0  0  0  0
  5 12  2  0  0  0  0
  7 12  1  0  0  0  0
  7 13  1  0  0  0  0
  8 14  2  0  0  0  0
  9 16  1  0  0  0  0
 10 11  1  0  0  0  0
 10 18  1  0  0  0  0
 10 20  1  0  0  0  0
 13 22  2  0  0  0  0
 13 23  1  0  0  0  0
 14 15  1  0  0  0  0
 14 22  1  0  0  0  0
 16 17  1  0  0  0  0
 16 18  1  0  0  0  0
 16 26  1  0  0  0  0
 18 19  1  0  0  0  0
 18 29  1  0  0  0  0
 20 21  1  0  0  0  0
 23 24  1  0  0  0  0
 23 25  1  0  0  0  0
 26 27  1  0  0  0  0
 26 28  1  0  0  0  0
 26 31  1  0  0  0  0
 29 30  1  0  0  0  0
 31 32  1  0  0  0  0
 32 33  1  0  0  0  0
 32 34  2  0  0  0  0
 32 35  1  0  0  0  0
 33 36  1  0  0  0  0
 36 37  1  0  0  0  0
 36 39  2  0  0  0  0
 36 40  2  0  0  0  0
 37 38  1  0  0  0  0
M  END
> <ConfClashScore>
0 

> <ConfOneFourInteractionScore>
-0.97979 

> <ConfScore>
-0.303901 

> <ConfScorePBest>
0.0123175 

> <ConfTolerance>
0.885477 

$$$$
ChEBI.****
  PyMOL2.5          3D                             0

 40 42  0  0  0  0  0  0  0  0999 V2000
    9.6264   -9.8578   -2.4287 N   0  0  0  1  0  0  0  0  0  0  0  0
    9.7296   -8.4908   -2.4096 C   0  0  0  1  0  0  0  0  0  0  0  0
    8.7182  -10.6936   -1.6191 C   0  0  0  1  0  0  0  0  0  0  0  0
    7.7332  -10.6576   -2.0357 H   0  0  0  1  0  0  0  0  0  0  0  0
   10.5348  -10.2834   -3.3487 C   0  0  0  1  0  0  0  0  0  0  0  0
   10.6697  -11.2889   -3.5778 H   0  0  0  1  0  0  0  0  0  0  0  0
   10.7278   -8.1773   -3.3418 C   0  0  0  1  0  0  0  0  0  0  0  0
    9.0430   -7.6298   -1.6571 N   0  0  0  1  0  0  0  0  0  0  0  0
    9.1801  -12.0129   -1.5762 O   0  0  0  1  0  0  0  0  0  0  0  0
    8.7001  -10.2060   -0.1617 C   0  0  0  1  0  0  0  0  0  0  0  0
    8.8434   -9.1471   -0.1070 H   0  0  0  1  0  0  0  0  0  0  0  0
   11.2241   -9.3345   -3.9217 N   0  0  0  1  0  0  0  0  0  0  0  0
   11.0154   -6.8226   -3.4795 C   0  0  0  1  0  0  0  0  0  0  0  0
    9.4123   -6.3775   -1.8964 C   0  0  0  1  0  0  0  0  0  0  0  0
    8.9140   -5.6488   -1.3466 H   0  0  0  1  0  0  0  0  0  0  0  0
    9.9050  -12.2688   -0.3601 C   0  0  0  1  0  0  0  0  0  0  0  0
    9.4348  -13.0549    0.1928 H   0  0  0  1  0  0  0  0  0  0  0  0
    9.8735  -10.9500    0.4512 C   0  0  0  1  0  0  0  0  0  0  0  0
   10.7838  -10.4009    0.3296 H   0  0  0  1  0  0  0  0  0  0  0  0
    7.4747  -10.5554    0.4835 O   0  0  0  1  0  0  0  0  0  0  0  0
    7.5586  -11.4250    0.8815 H   0  0  0  1  0  0  0  0  0  0  0  0
   10.3421   -5.9246   -2.7522 N   0  0  0  1  0  0  0  0  0  0  0  0
   11.9708   -6.3447   -4.3372 N   0  0  0  1  0  0  0  0  0  0  0  0
   12.1428   -5.3815   -4.3916 H   0  0  0  1  0  0  0  0  0  0  0  0
   12.4822   -6.9661   -4.8965 H   0  0  0  1  0  0  0  0  0  0  0  0
   11.3149  -12.6514   -0.6697 C   0  0  0  1  0  0  0  0  0  0  0  0
   11.8673  -12.7730    0.2386 H   0  0  0  1  0  0  0  0  0  0  0  0
   11.7750  -11.8936   -1.2688 H   0  0  0  1  0  0  0  0  0  0  0  0
    9.6524  -11.2051    1.8391 O   0  0  0  1  0  0  0  0  0  0  0  0
   10.4959  -11.3286    2.2806 H   0  0  0  1  0  0  0  0  0  0  0  0
   11.2812  -13.9018   -1.3971 O   0  0  0  1  0  0  0  0  0  0  0  0
   12.6326  -14.7187   -1.8397 P   0  0  0  1  0  0  0  0  0  0  0  0
   13.3922  -15.0035   -0.3731 O   0  0  0  1  0  0  0  0  0  0  0  0
   12.2323  -16.0175   -2.4257 O   0  0  0  1  0  0  0  0  0  0  0  0
   13.6149  -13.8034   -2.7463 O   0  5  0  1  0  0  0  0  0  0  0  0
   14.8560  -14.8247    0.2826 S   0  0  0  1  0  0  0  0  0  0  0  0
   14.6478  -14.6760    1.7096 O   0  0  0  1  0  0  0  0  0  0  0  0
   15.4618  -14.3791    2.1229 H   0  0  0  1  0  0  0  0  0  0  0  0
   15.6035  -15.9800   -0.0768 O   0  0  0  1  0  0  0  0  0  0  0  0
   15.1982  -13.6123   -0.3740 O   0  0  0  1  0  0  0  0  0  0  0  0
  1  2  1  0  0  0  0
  1  3  1  0  0  0  0
  1  5  1  0  0  0  0
  2  7  2  0  0  0  0
  2  8  1  0  0  0  0
  3  4  1  0  0  0  0
  3  9  1  0  0  0  0
  3 10  1  0  0  0  0
  5  6  1  0  0  0  0
  5 12  2  0  0  0  0
  7 12  1  0  0  0  0
  7 13  1  0  0  0  0
  8 14  2  0  0  0  0
  9 16  1  0  0  0  0
 10 11  1  0  0  0  0
 10 18  1  0  0  0  0
 10 20  1  0  0  0  0
 13 22  2  0  0  0  0
 13 23  1  0  0  0  0
 14 15  1  0  0  0  0
 14 22  1  0  0  0  0
 16 17  1  0  0  0  0
 16 18  1  0  0  0  0
 16 26  1  0  0  0  0
 18 19  1  0  0  0  0
 18 29  1  0  0  0  0
 20 21  1  0  0  0  0
 23 24  1  0  0  0  0
 23 25  1  0  0  0  0
 26 27  1  0  0  0  0
 26 28  1  0  0  0  0
 26 31  1  0  0  0  0
 29 30  1  0  0  0  0
 31 32  1  0  0  0  0
 32 33  1  0  0  0  0
 32 34  2  0  0  0  0
 32 35  1  0  0  0  0
 33 36  1  0  0  0  0
 36 37  1  0  0  0  0
 36 39  2  0  0  0  0
 36 40  2  0  0  0  0
 37 38  1  0  0  0  0
M  END
> <ConfClashScore>
0 

> <ConfOneFourInteractionScore>
-0.977742 

> <ConfScore>
-0.302716 

> <ConfScorePBest>
0.0122145 

> <ConfTolerance>
0.85564 

$$$$
ChEBI.****
  PyMOL2.5          3D                             0

 40 42  0  0  0  0  0  0  0  0999 V2000
    9.6312   -9.8595   -2.4278 N   0  0  0  1  0  0  0  0  0  0  0  0
    9.7302   -8.4922   -2.4102 C   0  0  0  1  0  0  0  0  0  0  0  0
    8.7235  -10.6975   -1.6182 C   0  0  0  1  0  0  0  0  0  0  0  0
    7.7474  -10.6934   -2.0567 H   0  0  0  1  0  0  0  0  0  0  0  0
   10.5425  -10.2835   -3.3456 C   0  0  0  1  0  0  0  0  0  0  0  0
   10.6808  -11.2888   -3.5732 H   0  0  0  1  0  0  0  0  0  0  0  0
   10.7291   -8.1768   -3.3410 C   0  0  0  1  0  0  0  0  0  0  0  0
    9.0396   -7.6323   -1.6601 N   0  0  0  1  0  0  0  0  0  0  0  0
    9.2124  -12.0078   -1.5595 O   0  0  0  1  0  0  0  0  0  0  0  0
    8.6527  -10.1534   -0.1826 C   0  0  0  1  0  0  0  0  0  0  0  0
    9.0437   -9.1590   -0.1275 H   0  0  0  1  0  0  0  0  0  0  0  0
   11.2299   -9.3332   -3.9186 N   0  0  0  1  0  0  0  0  0  0  0  0
   11.0128   -6.8214   -3.4799 C   0  0  0  1  0  0  0  0  0  0  0  0
    9.4056   -6.3792   -1.9002 C   0  0  0  1  0  0  0  0  0  0  0  0
    8.9041   -5.6513   -1.3522 H   0  0  0  1  0  0  0  0  0  0  0  0
    9.3841  -12.4310   -0.1727 C   0  0  0  1  0  0  0  0  0  0  0  0
    8.5276  -12.9757    0.1660 H   0  0  0  1  0  0  0  0  0  0  0  0
    9.5349  -11.1384    0.5961 C   0  0  0  1  0  0  0  0  0  0  0  0
   10.5548  -10.8148    0.6035 H   0  0  0  1  0  0  0  0  0  0  0  0
    7.3110  -10.1661    0.3071 O   0  0  0  1  0  0  0  0  0  0  0  0
    7.1786   -9.4214    0.8982 H   0  0  0  1  0  0  0  0  0  0  0  0
   10.3355   -5.9245   -2.7550 N   0  0  0  1  0  0  0  0  0  0  0  0
   11.9683   -6.3417   -4.3366 N   0  0  0  1  0  0  0  0  0  0  0  0
   12.5516   -6.9646   -4.8183 H   0  0  0  1  0  0  0  0  0  0  0  0
   12.0684   -5.3756   -4.4675 H   0  0  0  1  0  0  0  0  0  0  0  0
   10.5899  -13.2691   -0.0276 C   0  0  0  1  0  0  0  0  0  0  0  0
   10.7169  -13.5283    1.0028 H   0  0  0  1  0  0  0  0  0  0  0  0
   11.4436  -12.7197   -0.3655 H   0  0  0  1  0  0  0  0  0  0  0  0
    9.0719  -11.2865    1.9392 O   0  0  0  1  0  0  0  0  0  0  0  0
    9.7532  -10.9909    2.5474 H   0  0  0  1  0  0  0  0  0  0  0  0
   10.4614  -14.4790   -0.8108 O   0  0  0  1  0  0  0  0  0  0  0  0
   11.5231  -15.7254   -0.7168 P   0  0  0  1  0  0  0  0  0  0  0  0
   11.4549  -16.4689    0.7838 O   0  0  0  1  0  0  0  0  0  0  0  0
   11.4375  -16.7191   -1.8102 O   0  0  0  1  0  0  0  0  0  0  0  0
   13.0355  -15.1460   -0.6783 O   0  5  0  1  0  0  0  0  0  0  0  0
   10.3779  -16.6419    2.0366 S   0  0  0  1  0  0  0  0  0  0  0  0
    9.4302  -15.5759    1.6041 O   0  0  0  1  0  0  0  0  0  0  0  0
    9.3433  -15.5930    0.6482 H   0  0  0  1  0  0  0  0  0  0  0  0
    9.9286  -17.9092    2.0186 O   0  0  0  1  0  0  0  0  0  0  0  0
   11.1020  -16.0824    3.1232 O   0  0  0  1  0  0  0  0  0  0  0  0
  1  2  1  0  0  0  0
  1  3  1  0  0  0  0
  1  5  1  0  0  0  0
  2  7  2  0  0  0  0
  2  8  1  0  0  0  0
  3  4  1  0  0  0  0
  3  9  1  0  0  0  0
  3 10  1  0  0  0  0
  5  6  1  0  0  0  0
  5 12  2  0  0  0  0
  7 12  1  0  0  0  0
  7 13  1  0  0  0  0
  8 14  2  0  0  0  0
  9 16  1  0  0  0  0
 10 11  1  0  0  0  0
 10 18  1  0  0  0  0
 10 20  1  0  0  0  0
 13 22  2  0  0  0  0
 13 23  1  0  0  0  0
 14 15  1  0  0  0  0
 14 22  1  0  0  0  0
 16 17  1  0  0  0  0
 16 18  1  0  0  0  0
 16 26  1  0  0  0  0
 18 19  1  0  0  0  0
 18 29  1  0  0  0  0
 20 21  1  0  0  0  0
 23 24  1  0  0  0  0
 23 25  1  0  0  0  0
 26 27  1  0  0  0  0
 26 28  1  0  0  0  0
 26 31  1  0  0  0  0
 29 30  1  0  0  0  0
 31 32  1  0  0  0  0
 32 33  1  0  0  0  0
 32 34  2  0  0  0  0
 32 35  1  0  0  0  0
 33 36  1  0  0  0  0
 36 37  1  0  0  0  0
 36 39  2  0  0  0  0
 36 40  2  0  0  0  0
 37 38  1  0  0  0  0
M  END
> <ConfClashScore>
0 

> <ConfOneFourInteractionScore>
-0.972533 

> <ConfScore>
-0.299266 

> <ConfScorePBest>
0.0121115 

> <ConfTolerance>
0.858733 

$$$$
ChEBI.****
  PyMOL2.5          3D                             0

 40 42  0  0  0  0  0  0  0  0999 V2000
    9.6255   -9.8753   -2.4290 N   0  0  0  1  0  0  0  0  0  0  0  0
    9.7306   -8.5084   -2.4120 C   0  0  0  1  0  0  0  0  0  0  0  0
    8.7017  -10.6539   -1.5989 C   0  0  0  1  0  0  0  0  0  0  0  0
    7.7079  -10.5575   -1.9836 H   0  0  0  1  0  0  0  0  0  0  0  0
   10.5331  -10.3035   -3.3486 C   0  0  0  1  0  0  0  0  0  0  0  0
   10.6664  -11.3095   -3.5762 H   0  0  0  1  0  0  0  0  0  0  0  0
   10.7290   -8.1977   -3.3449 C   0  0  0  1  0  0  0  0  0  0  0  0
    9.0454   -7.6453   -1.6606 N   0  0  0  1  0  0  0  0  0  0  0  0
    9.0854  -11.9986   -1.5745 O   0  0  0  1  0  0  0  0  0  0  0  0
    8.7591  -10.1731   -0.1402 C   0  0  0  1  0  0  0  0  0  0  0  0
    8.9668   -9.1248   -0.0872 H   0  0  0  1  0  0  0  0  0  0  0  0
   11.2234   -9.3564   -3.9233 N   0  0  0  1  0  0  0  0  0  0  0  0
   11.0183   -6.8435   -3.4847 C   0  0  0  1  0  0  0  0  0  0  0  0
    9.4163   -6.3939   -1.9018 C   0  0  0  1  0  0  0  0  0  0  0  0
    8.9192   -5.6637   -1.3530 H   0  0  0  1  0  0  0  0  0  0  0  0
    9.8321  -12.3029   -0.3830 C   0  0  0  1  0  0  0  0  0  0  0  0
    9.3336  -13.0623    0.1825 H   0  0  0  1  0  0  0  0  0  0  0  0
    9.9050  -10.9884    0.4327 C   0  0  0  1  0  0  0  0  0  0  0  0
   10.8420  -10.4939    0.2835 H   0  0  0  1  0  0  0  0  0  0  0  0
    7.5361  -10.4520    0.5429 O   0  0  0  1  0  0  0  0  0  0  0  0
    7.6876  -11.1270    1.2084 H   0  0  0  1  0  0  0  0  0  0  0  0
   10.3465   -5.9435   -2.7586 N   0  0  0  1  0  0  0  0  0  0  0  0
   11.9746   -6.3028   -4.3374 N   0  0  0  1  0  0  0  0  0  0  0  0
   12.5308   -6.8934   -4.8873 H   0  0  0  1  0  0  0  0  0  0  0  0
   12.0923   -5.3313   -4.3885 H   0  0  0  1  0  0  0  0  0  0  0  0
   11.1696  -12.7548   -0.7292 C   0  0  0  1  0  0  0  0  0  0  0  0
   11.0881  -13.6518   -1.3068 H   0  0  0  1  0  0  0  0  0  0  0  0
   11.7056  -12.9591    0.1741 H   0  0  0  1  0  0  0  0  0  0  0  0
    9.7133  -11.2365    1.8262 O   0  0  0  1  0  0  0  0  0  0  0  0
    9.0180  -10.6653    2.1607 H   0  0  0  1  0  0  0  0  0  0  0  0
   11.9120  -11.7776   -1.4959 O   0  0  0  1  0  0  0  0  0  0  0  0
   13.4000  -12.0699   -2.1203 P   0  0  0  1  0  0  0  0  0  0  0  0
   13.3111  -13.3440   -3.2056 O   0  0  0  1  0  0  0  0  0  0  0  0
   13.9271  -10.8007   -2.6697 O   0  0  0  1  0  0  0  0  0  0  0  0
   14.1936  -12.4997   -0.7750 O   0  5  0  1  0  0  0  0  0  0  0  0
   14.1383  -14.6051   -3.5904 S   0  0  0  1  0  0  0  0  0  0  0  0
   14.9842  -14.2566   -4.6910 O   0  0  0  1  0  0  0  0  0  0  0  0
   14.5252  -13.6388   -5.2649 H   0  0  0  1  0  0  0  0  0  0  0  0
   14.8512  -14.8525   -2.3907 O   0  0  0  1  0  0  0  0  0  0  0  0
   13.2337  -15.6303   -3.9530 O   0  0  0  1  0  0  0  0  0  0  0  0
  1  2  1  0  0  0  0
  1  3  1  0  0  0  0
  1  5  1  0  0  0  0
  2  7  2  0  0  0  0
  2  8  1  0  0  0  0
  3  4  1  0  0  0  0
  3  9  1  0  0  0  0
  3 10  1  0  0  0  0
  5  6  1  0  0  0  0
  5 12  2  0  0  0  0
  7 12  1  0  0  0  0
  7 13  1  0  0  0  0
  8 14  2  0  0  0  0
  9 16  1  0  0  0  0
 10 11  1  0  0  0  0
 10 18  1  0  0  0  0
 10 20  1  0  0  0  0
 13 22  2  0  0  0  0
 13 23  1  0  0  0  0
 14 15  1  0  0  0  0
 14 22  1  0  0  0  0
 16 17  1  0  0  0  0
 16 18  1  0  0  0  0
 16 26  1  0  0  0  0
 18 19  1  0  0  0  0
 18 29  1  0  0  0  0
 20 21  1  0  0  0  0
 23 24  1  0  0  0  0
 23 25  1  0  0  0  0
 26 27  1  0  0  0  0
 26 28  1  0  0  0  0
 26 31  1  0  0  0  0
 29 30  1  0  0  0  0
 31 32  1  0  0  0  0
 32 33  1  0  0  0  0
 32 34  2  0  0  0  0
 32 35  1  0  0  0  0
 33 36  1  0  0  0  0
 36 37  1  0  0  0  0
 36 39  2  0  0  0  0
 36 40  2  0  0  0  0
 37 38  1  0  0  0  0
M  END
> <ConfClashScore>
0 

> <ConfOneFourInteractionScore>
-0.986146 

> <ConfScore>
-0.299207 

> <ConfScorePBest>
0.0120085 

> <ConfTolerance>
0.834717 

$$$$
ChEBI.****
  PyMOL2.5          3D                             0

 40 42  0  0  0  0  0  0  0  0999 V2000
    9.6349   -9.8440   -2.4410 N   0  0  0  1  0  0  0  0  0  0  0  0
    9.7290   -8.4766   -2.4077 C   0  0  0  1  0  0  0  0  0  0  0  0
    8.7296  -10.6974   -1.6366 C   0  0  0  1  0  0  0  0  0  0  0  0
    8.4462  -11.5560   -2.2087 H   0  0  0  1  0  0  0  0  0  0  0  0
   10.5456  -10.2538   -3.3659 C   0  0  0  1  0  0  0  0  0  0  0  0
   10.6871  -11.2558   -3.6056 H   0  0  0  1  0  0  0  0  0  0  0  0
   10.7244   -8.1466   -3.3372 C   0  0  0  1  0  0  0  0  0  0  0  0
    9.0371   -7.6281   -1.6459 N   0  0  0  1  0  0  0  0  0  0  0  0
    9.3759  -11.1010   -0.4624 O   0  0  0  1  0  0  0  0  0  0  0  0
    7.4778   -9.8996   -1.2383 C   0  0  0  1  0  0  0  0  0  0  0  0
    7.3846   -9.0099   -1.8254 H   0  0  0  1  0  0  0  0  0  0  0  0
   11.2280   -9.2943   -3.9295 N   0  0  0  1  0  0  0  0  0  0  0  0
   11.0027   -6.7886   -3.4610 C   0  0  0  1  0  0  0  0  0  0  0  0
    9.3977   -6.3709   -1.8723 C   0  0  0  1  0  0  0  0  0  0  0  0
    8.8949   -5.6514   -1.3146 H   0  0  0  1  0  0  0  0  0  0  0  0
    8.5953  -10.7200    0.7112 C   0  0  0  1  0  0  0  0  0  0  0  0
    7.9810  -11.5329    1.0379 H   0  0  0  1  0  0  0  0  0  0  0  0
    7.7452   -9.5644    0.2351 C   0  0  0  1  0  0  0  0  0  0  0  0
    8.2731   -8.6382    0.3268 H   0  0  0  1  0  0  0  0  0  0  0  0
    6.2968  -10.6903   -1.3802 O   0  0  0  1  0  0  0  0  0  0  0  0
    6.5288  -11.6213   -1.3482 H   0  0  0  1  0  0  0  0  0  0  0  0
   10.3238   -5.9028   -2.7239 N   0  0  0  1  0  0  0  0  0  0  0  0
   11.9744   -6.3972   -4.3439 N   0  0  0  1  0  0  0  0  0  0  0  0
   12.4637   -7.0689   -4.8634 H   0  0  0  1  0  0  0  0  0  0  0  0
   12.1801   -5.4457   -4.4560 H   0  0  0  1  0  0  0  0  0  0  0  0
    9.4978  -10.2898    1.8344 C   0  0  0  1  0  0  0  0  0  0  0  0
   10.2572  -11.0241    2.0051 H   0  0  0  1  0  0  0  0  0  0  0  0
    8.9335  -10.1443    2.7318 H   0  0  0  1  0  0  0  0  0  0  0  0
    6.5237   -9.4919    0.9718 O   0  0  0  1  0  0  0  0  0  0  0  0
    6.6820   -9.7547    1.8815 H   0  0  0  1  0  0  0  0  0  0  0  0
   10.0857   -9.0512    1.4058 O   0  0  0  1  0  0  0  0  0  0  0  0
   11.0400   -8.0861    2.3265 P   0  0  0  1  0  0  0  0  0  0  0  0
   12.4623   -8.9324    2.5910 O   0  0  0  1  0  0  0  0  0  0  0  0
   11.2375   -6.7525    1.7159 O   0  0  0  1  0  0  0  0  0  0  0  0
   10.2351   -7.9846    3.7287 O   0  5  0  1  0  0  0  0  0  0  0  0
   13.4732   -9.8157    1.7743 S   0  0  0  1  0  0  0  0  0  0  0  0
   14.2104   -8.7841    1.1027 O   0  0  0  1  0  0  0  0  0  0  0  0
   13.6536   -8.0092    0.9973 H   0  0  0  1  0  0  0  0  0  0  0  0
   14.2646  -10.5570    2.6583 O   0  0  0  1  0  0  0  0  0  0  0  0
   12.7134  -10.6129    0.9063 O   0  0  0  1  0  0  0  0  0  0  0  0
  1  2  1  0  0  0  0
  1  3  1  0  0  0  0
  1  5  1  0  0  0  0
  2  7  2  0  0  0  0
  2  8  1  0  0  0  0
  3  4  1  0  0  0  0
  3  9  1  0  0  0  0
  3 10  1  0  0  0  0
  5  6  1  0  0  0  0
  5 12  2  0  0  0  0
  7 12  1  0  0  0  0
  7 13  1  0  0  0  0
  8 14  2  0  0  0  0
  9 16  1  0  0  0  0
 10 11  1  0  0  0  0
 10 18  1  0  0  0  0
 10 20  1  0  0  0  0
 13 22  2  0  0  0  0
 13 23  1  0  0  0  0
 14 15  1  0  0  0  0
 14 22  1  0  0  0  0
 16 17  1  0  0  0  0
 16 18  1  0  0  0  0
 16 26  1  0  0  0  0
 18 19  1  0  0  0  0
 18 29  1  0  0  0  0
 20 21  1  0  0  0  0
 23 24  1  0  0  0  0
 23 25  1  0  0  0  0
 26 27  1  0  0  0  0
 26 28  1  0  0  0  0
 26 31  1  0  0  0  0
 29 30  1  0  0  0  0
 31 32  1  0  0  0  0
 32 33  1  0  0  0  0
 32 34  2  0  0  0  0
 32 35  1  0  0  0  0
 33 36  1  0  0  0  0
 36 37  1  0  0  0  0
 36 39  2  0  0  0  0
 36 40  2  0  0  0  0
 37 38  1  0  0  0  0
M  END
> <ConfClashScore>
0 

> <ConfOneFourInteractionScore>
-0.982448 

> <ConfScore>
-0.297196 

> <ConfScorePBest>
0.0119055 

> <ConfTolerance>
1.01802 

$$$$
ChEBI.****
  PyMOL2.5          3D                             0

 40 42  0  0  0  0  0  0  0  0999 V2000
    9.6323   -9.8691   -2.4372 N   0  0  0  1  0  0  0  0  0  0  0  0
    9.7325   -8.5020   -2.4134 C   0  0  0  1  0  0  0  0  0  0  0  0
    8.7044  -10.5988   -1.5992 C   0  0  0  1  0  0  0  0  0  0  0  0
    7.7057  -10.4382   -1.9481 H   0  0  0  1  0  0  0  0  0  0  0  0
   10.5413  -10.2894   -3.3590 C   0  0  0  1  0  0  0  0  0  0  0  0
   10.6783  -11.2938   -3.5917 H   0  0  0  1  0  0  0  0  0  0  0  0
   10.7297   -8.1830   -3.3448 C   0  0  0  1  0  0  0  0  0  0  0  0
    9.0443   -7.6451   -1.6576 N   0  0  0  1  0  0  0  0  0  0  0  0
    9.0096  -11.9636   -1.6096 O   0  0  0  1  0  0  0  0  0  0  0  0
    8.8382  -10.1484   -0.1358 C   0  0  0  1  0  0  0  0  0  0  0  0
    9.1083   -9.1150   -0.0731 H   0  0  0  1  0  0  0  0  0  0  0  0
   11.2282   -9.3370   -3.9290 N   0  0  0  1  0  0  0  0  0  0  0  0
   11.0142   -6.8271   -3.4778 C   0  0  0  1  0  0  0  0  0  0  0  0
    9.4107   -6.3912   -1.8926 C   0  0  0  1  0  0  0  0  0  0  0  0
    8.9110   -5.6655   -1.3401 H   0  0  0  1  0  0  0  0  0  0  0  0
    9.7764  -12.3319   -0.4493 C   0  0  0  1  0  0  0  0  0  0  0  0
    9.2535  -13.0714    0.1206 H   0  0  0  1  0  0  0  0  0  0  0  0
    9.9529  -11.0388    0.3844 C   0  0  0  1  0  0  0  0  0  0  0  0
   10.9118  -10.5966    0.2112 H   0  0  0  1  0  0  0  0  0  0  0  0
    7.6243  -10.3685    0.5841 O   0  0  0  1  0  0  0  0  0  0  0  0
    7.8141  -10.8499    1.3927 H   0  0  0  1  0  0  0  0  0  0  0  0
   10.3391   -5.9332   -2.7471 N   0  0  0  1  0  0  0  0  0  0  0  0
   11.9682   -6.3441   -4.3342 N   0  0  0  1  0  0  0  0  0  0  0  0
   12.1107   -5.3779   -4.4144 H   0  0  0  1  0  0  0  0  0  0  0  0
   12.5082   -6.9649   -4.8666 H   0  0  0  1  0  0  0  0  0  0  0  0
   11.1084  -12.8683   -0.8592 C   0  0  0  1  0  0  0  0  0  0  0  0
   11.5637  -12.2097   -1.5691 H   0  0  0  1  0  0  0  0  0  0  0  0
   10.9920  -13.8384   -1.2954 H   0  0  0  1  0  0  0  0  0  0  0  0
    9.7935  -11.3005    1.7795 O   0  0  0  1  0  0  0  0  0  0  0  0
    9.0539  -11.8983    1.9109 H   0  0  0  1  0  0  0  0  0  0  0  0
   11.9246  -12.9567    0.3197 O   0  0  0  1  0  0  0  0  0  0  0  0
   13.5203  -13.3347    0.3417 P   0  0  0  1  0  0  0  0  0  0  0  0
   13.6440  -14.7381   -0.4611 O   0  0  0  1  0  0  0  0  0  0  0  0
   14.3728  -12.2462   -0.1864 O   0  0  0  1  0  0  0  0  0  0  0  0
   13.9623  -13.7927    1.8314 O   0  5  0  1  0  0  0  0  0  0  0  0
   13.1119  -16.1380    0.0756 S   0  0  0  1  0  0  0  0  0  0  0  0
   14.3649  -16.8002    0.0001 O   0  0  0  1  0  0  0  0  0  0  0  0
   14.8363  -16.6896    0.8290 H   0  0  0  1  0  0  0  0  0  0  0  0
   12.6280  -15.9217    1.3875 O   0  0  0  1  0  0  0  0  0  0  0  0
   12.1465  -16.6525   -0.8241 O   0  0  0  1  0  0  0  0  0  0  0  0
  1  2  1  0  0  0  0
  1  3  1  0  0  0  0
  1  5  1  0  0  0  0
  2  7  2  0  0  0  0
  2  8  1  0  0  0  0
  3  4  1  0  0  0  0
  3  9  1  0  0  0  0
  3 10  1  0  0  0  0
  5  6  1  0  0  0  0
  5 12  2  0  0  0  0
  7 12  1  0  0  0  0
  7 13  1  0  0  0  0
  8 14  2  0  0  0  0
  9 16  1  0  0  0  0
 10 11  1  0  0  0  0
 10 18  1  0  0  0  0
 10 20  1  0  0  0  0
 13 22  2  0  0  0  0
 13 23  1  0  0  0  0
 14 15  1  0  0  0  0
 14 22  1  0  0  0  0
 16 17  1  0  0  0  0
 16 18  1  0  0  0  0
 16 26  1  0  0  0  0
 18 19  1  0  0  0  0
 18 29  1  0  0  0  0
 20 21  1  0  0  0  0
 23 24  1  0  0  0  0
 23 25  1  0  0  0  0
 26 27  1  0  0  0  0
 26 28  1  0  0  0  0
 26 31  1  0  0  0  0
 29 30  1  0  0  0  0
 31 32  1  0  0  0  0
 32 33  1  0  0  0  0
 32 34  2  0  0  0  0
 32 35  1  0  0  0  0
 33 36  1  0  0  0  0
 36 37  1  0  0  0  0
 36 39  2  0  0  0  0
 36 40  2  0  0  0  0
 37 38  1  0  0  0  0
M  END
> <ConfClashScore>
0 

> <ConfOneFourInteractionScore>
-0.962855 

> <ConfScore>
-0.296632 

> <ConfScorePBest>
0.0118025 

> <ConfTolerance>
0.822236 

$$$$
ChEBI.****
  PyMOL2.5          3D                             0

 40 42  0  0  0  0  0  0  0  0999 V2000
    9.6437   -9.8786   -2.3959 N   0  0  0  1  0  0  0  0  0  0  0  0
    9.7471   -8.5114   -2.3929 C   0  0  0  1  0  0  0  0  0  0  0  0
    8.6149  -10.6925   -1.6875 C   0  0  0  1  0  0  0  0  0  0  0  0
    9.0959  -11.3541   -0.9976 H   0  0  0  1  0  0  0  0  0  0  0  0
   10.5424  -10.3143   -3.3207 C   0  0  0  1  0  0  0  0  0  0  0  0
   10.6748  -11.3222   -3.5402 H   0  0  0  1  0  0  0  0  0  0  0  0
   10.7354   -8.2083   -3.3390 C   0  0  0  1  0  0  0  0  0  0  0  0
    9.0684   -7.6422   -1.6427 N   0  0  0  1  0  0  0  0  0  0  0  0
    7.6763   -9.8360   -0.9986 O   0  0  0  1  0  0  0  0  0  0  0  0
    7.7705  -11.4834   -2.6910 C   0  0  0  1  0  0  0  0  0  0  0  0
    7.7958  -11.0264   -3.6582 H   0  0  0  1  0  0  0  0  0  0  0  0
   11.2255   -9.3718   -3.9114 N   0  0  0  1  0  0  0  0  0  0  0  0
   11.0215   -6.8551   -3.4945 C   0  0  0  1  0  0  0  0  0  0  0  0
    9.4352   -6.3926   -1.8996 C   0  0  0  1  0  0  0  0  0  0  0  0
    8.9427   -5.6578   -1.3526 H   0  0  0  1  0  0  0  0  0  0  0  0
    6.3624  -10.0304   -1.4467 C   0  0  0  1  0  0  0  0  0  0  0  0
    5.6752  -10.0089   -0.6268 H   0  0  0  1  0  0  0  0  0  0  0  0
    6.3867  -11.4200   -2.0997 C   0  0  0  1  0  0  0  0  0  0  0  0
    5.6382  -11.5021   -2.8600 H   0  0  0  1  0  0  0  0  0  0  0  0
    8.2239  -12.8342   -2.7899 O   0  0  0  1  0  0  0  0  0  0  0  0
    9.1837  -12.8513   -2.7840 H   0  0  0  1  0  0  0  0  0  0  0  0
   10.3559   -5.9492   -2.7700 N   0  0  0  1  0  0  0  0  0  0  0  0
   11.9621   -6.2771   -4.3521 N   0  0  0  1  0  0  0  0  0  0  0  0
   12.5514   -6.8473   -4.8888 H   0  0  0  1  0  0  0  0  0  0  0  0
   12.0321   -5.3018   -4.4166 H   0  0  0  1  0  0  0  0  0  0  0  0
    5.9874   -8.9968   -2.4309 C   0  0  0  1  0  0  0  0  0  0  0  0
    6.1407   -8.0290   -2.0011 H   0  0  0  1  0  0  0  0  0  0  0  0
    4.9555   -9.1137   -2.6887 H   0  0  0  1  0  0  0  0  0  0  0  0
    6.1942  -12.4490   -1.1281 O   0  0  0  1  0  0  0  0  0  0  0  0
    6.9676  -12.5040   -0.5621 H   0  0  0  1  0  0  0  0  0  0  0  0
    6.7925   -9.1205   -3.6233 O   0  0  0  1  0  0  0  0  0  0  0  0
    6.3456   -8.2868   -4.9630 P   0  0  0  1  0  0  0  0  0  0  0  0
    7.3166   -8.7840   -6.2354 O   0  0  0  1  0  0  0  0  0  0  0  0
    4.8927   -8.4340   -5.2037 O   0  0  0  1  0  0  0  0  0  0  0  0
    6.6263   -6.7286   -4.6200 O   0  5  0  1  0  0  0  0  0  0  0  0
    7.4217   -8.5623   -7.8651 S   0  0  0  1  0  0  0  0  0  0  0  0
    6.6571   -9.6322   -8.4317 O   0  0  0  1  0  0  0  0  0  0  0  0
    5.7562   -9.3371   -8.5829 H   0  0  0  1  0  0  0  0  0  0  0  0
    6.8187   -7.2752   -8.0047 O   0  0  0  1  0  0  0  0  0  0  0  0
    8.8130   -8.6085   -8.1455 O   0  0  0  1  0  0  0  0  0  0  0  0
  1  2  1  0  0  0  0
  1  3  1  0  0  0  0
  1  5  1  0  0  0  0
  2  7  2  0  0  0  0
  2  8  1  0  0  0  0
  3  4  1  0  0  0  0
  3  9  1  0  0  0  0
  3 10  1  0  0  0  0
  5  6  1  0  0  0  0
  5 12  2  0  0  0  0
  7 12  1  0  0  0  0
  7 13  1  0  0  0  0
  8 14  2  0  0  0  0
  9 16  1  0  0  0  0
 10 11  1  0  0  0  0
 10 18  1  0  0  0  0
 10 20  1  0  0  0  0
 13 22  2  0  0  0  0
 13 23  1  0  0  0  0
 14 15  1  0  0  0  0
 14 22  1  0  0  0  0
 16 17  1  0  0  0  0
 16 18  1  0  0  0  0
 16 26  1  0  0  0  0
 18 19  1  0  0  0  0
 18 29  1  0  0  0  0
 20 21  1  0  0  0  0
 23 24  1  0  0  0  0
 23 25  1  0  0  0  0
 26 27  1  0  0  0  0
 26 28  1  0  0  0  0
 26 31  1  0  0  0  0
 29 30  1  0  0  0  0
 31 32  1  0  0  0  0
 32 33  1  0  0  0  0
 32 34  2  0  0  0  0
 32 35  1  0  0  0  0
 33 36  1  0  0  0  0
 36 37  1  0  0  0  0
 36 39  2  0  0  0  0
 36 40  2  0  0  0  0
 37 38  1  0  0  0  0
M  END
> <ConfClashScore>
0 

> <ConfOneFourInteractionScore>
-0.985503 

> <ConfScore>
-0.296348 

> <ConfScorePBest>
0.0116995 

> <ConfTolerance>
1.03738 

$$$$
ChEBI.****
  PyMOL2.5          3D                             0

 40 42  0  0  0  0  0  0  0  0999 V2000
    9.6167   -9.8492   -2.4527 N   0  0  0  1  0  0  0  0  0  0  0  0
    9.7197   -8.4824   -2.4196 C   0  0  0  1  0  0  0  0  0  0  0  0
    8.7794  -10.7041   -1.5870 C   0  0  0  1  0  0  0  0  0  0  0  0
    7.7476  -10.4654   -1.7398 H   0  0  0  1  0  0  0  0  0  0  0  0
   10.5295  -10.2656   -3.3726 C   0  0  0  1  0  0  0  0  0  0  0  0
   10.6654  -11.2687   -3.6110 H   0  0  0  1  0  0  0  0  0  0  0  0
   10.7224   -8.1597   -3.3439 C   0  0  0  1  0  0  0  0  0  0  0  0
    9.0296   -7.6289   -1.6619 N   0  0  0  1  0  0  0  0  0  0  0  0
    9.0234  -12.1014   -1.8652 O   0  0  0  1  0  0  0  0  0  0  0  0
    9.1621  -10.5179   -0.1158 C   0  0  0  1  0  0  0  0  0  0  0  0
   10.1618  -10.1480   -0.0231 H   0  0  0  1  0  0  0  0  0  0  0  0
   11.2213   -9.3111   -3.9329 N   0  0  0  1  0  0  0  0  0  0  0  0
   11.0105   -6.8037   -3.4668 C   0  0  0  1  0  0  0  0  0  0  0  0
    9.4000   -6.3743   -1.8870 C   0  0  0  1  0  0  0  0  0  0  0  0
    8.8991   -5.6511   -1.3323 H   0  0  0  1  0  0  0  0  0  0  0  0
    9.4842  -12.7888   -0.7338 C   0  0  0  1  0  0  0  0  0  0  0  0
    9.0364  -13.7585   -0.6710 H   0  0  0  1  0  0  0  0  0  0  0  0
    9.0470  -11.9102    0.4472 C   0  0  0  1  0  0  0  0  0  0  0  0
    9.6967  -12.0416    1.2871 H   0  0  0  1  0  0  0  0  0  0  0  0
    8.2605   -9.6244    0.5390 O   0  0  0  1  0  0  0  0  0  0  0  0
    7.6602   -9.2446   -0.1068 H   0  0  0  1  0  0  0  0  0  0  0  0
   10.3337   -5.9130   -2.7338 N   0  0  0  1  0  0  0  0  0  0  0  0
   11.9772   -6.3731   -4.3281 N   0  0  0  1  0  0  0  0  0  0  0  0
   12.1374   -5.4133   -4.4448 H   0  0  0  1  0  0  0  0  0  0  0  0
   12.5113   -7.0236   -4.8301 H   0  0  0  1  0  0  0  0  0  0  0  0
   10.9531  -12.9257   -0.7676 C   0  0  0  1  0  0  0  0  0  0  0  0
   11.2435  -13.3782   -1.6927 H   0  0  0  1  0  0  0  0  0  0  0  0
   11.2682  -13.5441    0.0468 H   0  0  0  1  0  0  0  0  0  0  0  0
    7.7029  -12.1996    0.8344 O   0  0  0  1  0  0  0  0  0  0  0  0
    7.2687  -11.3904    1.1142 H   0  0  0  1  0  0  0  0  0  0  0  0
   11.5841  -11.6286   -0.6529 O   0  0  0  1  0  0  0  0  0  0  0  0
   13.2096  -11.4968   -0.4794 P   0  0  0  1  0  0  0  0  0  0  0  0
   13.8848  -12.0022   -1.9278 O   0  0  0  1  0  0  0  0  0  0  0  0
   13.7376  -10.1685   -0.0958 O   0  0  0  1  0  0  0  0  0  0  0  0
   13.7214  -12.5853    0.6057 O   0  5  0  1  0  0  0  0  0  0  0  0
   14.2952  -11.3525   -3.4006 S   0  0  0  1  0  0  0  0  0  0  0  0
   12.9053  -11.1074   -3.8797 O   0  0  0  1  0  0  0  0  0  0  0  0
   12.2992  -11.6900   -3.4162 H   0  0  0  1  0  0  0  0  0  0  0  0
   15.0666  -10.2750   -3.1724 O   0  0  0  1  0  0  0  0  0  0  0  0
   14.7393  -12.4956   -4.1091 O   0  0  0  1  0  0  0  0  0  0  0  0
  1  2  1  0  0  0  0
  1  3  1  0  0  0  0
  1  5  1  0  0  0  0
  2  7  2  0  0  0  0
  2  8  1  0  0  0  0
  3  4  1  0  0  0  0
  3  9  1  0  0  0  0
  3 10  1  0  0  0  0
  5  6  1  0  0  0  0
  5 12  2  0  0  0  0
  7 12  1  0  0  0  0
  7 13  1  0  0  0  0
  8 14  2  0  0  0  0
  9 16  1  0  0  0  0
 10 11  1  0  0  0  0
 10 18  1  0  0  0  0
 10 20  1  0  0  0  0
 13 22  2  0  0  0  0
 13 23  1  0  0  0  0
 14 15  1  0  0  0  0
 14 22  1  0  0  0  0
 16 17  1  0  0  0  0
 16 18  1  0  0  0  0
 16 26  1  0  0  0  0
 18 19  1  0  0  0  0
 18 29  1  0  0  0  0
 20 21  1  0  0  0  0
 23 24  1  0  0  0  0
 23 25  1  0  0  0  0
 26 27  1  0  0  0  0
 26 28  1  0  0  0  0
 26 31  1  0  0  0  0
 29 30  1  0  0  0  0
 31 32  1  0  0  0  0
 32 33  1  0  0  0  0
 32 34  2  0  0  0  0
 32 35  1  0  0  0  0
 33 36  1  0  0  0  0
 36 37  1  0  0  0  0
 36 39  2  0  0  0  0
 36 40  2  0  0  0  0
 37 38  1  0  0  0  0
M  END
> <ConfClashScore>
4.01146e-05 

> <ConfOneFourInteractionScore>
-0.984718 

> <ConfScore>
-0.295381 

> <ConfScorePBest>
0.0115965 

> <ConfTolerance>
0.932281 

$$$$
ChEBI.****
  PyMOL2.5          3D                             0

 40 42  0  0  0  0  0  0  0  0999 V2000
    9.6257   -9.8590   -2.4335 N   0  0  0  1  0  0  0  0  0  0  0  0
    9.7301   -8.4922   -2.4102 C   0  0  0  1  0  0  0  0  0  0  0  0
    8.7181  -10.6966   -1.6251 C   0  0  0  1  0  0  0  0  0  0  0  0
    8.9092  -10.5299   -0.5856 H   0  0  0  1  0  0  0  0  0  0  0  0
   10.5322  -10.2824   -3.3564 C   0  0  0  1  0  0  0  0  0  0  0  0
   10.6657  -11.2873   -3.5890 H   0  0  0  1  0  0  0  0  0  0  0  0
   10.7271   -8.1766   -3.3431 C   0  0  0  1  0  0  0  0  0  0  0  0
    9.0456   -7.6330   -1.6538 N   0  0  0  1  0  0  0  0  0  0  0  0
    7.3876  -10.3774   -1.9207 O   0  0  0  1  0  0  0  0  0  0  0  0
    8.9361  -12.1796   -1.9643 C   0  0  0  1  0  0  0  0  0  0  0  0
    9.8533  -12.3226   -2.4965 H   0  0  0  1  0  0  0  0  0  0  0  0
   11.2213   -9.3323   -3.9275 N   0  0  0  1  0  0  0  0  0  0  0  0
   11.0156   -6.8216   -3.4768 C   0  0  0  1  0  0  0  0  0  0  0  0
    9.4156   -6.3803   -1.8896 C   0  0  0  1  0  0  0  0  0  0  0  0
    8.9189   -5.6529   -1.3366 H   0  0  0  1  0  0  0  0  0  0  0  0
    6.6548  -11.5676   -2.3428 C   0  0  0  1  0  0  0  0  0  0  0  0
    6.1306  -12.0024   -1.5175 H   0  0  0  1  0  0  0  0  0  0  0  0
    7.7262  -12.5053   -2.8503 C   0  0  0  1  0  0  0  0  0  0  0  0
    7.9443  -12.3149   -3.8803 H   0  0  0  1  0  0  0  0  0  0  0  0
    8.9401  -12.9826   -0.7831 O   0  0  0  1  0  0  0  0  0  0  0  0
    8.0365  -13.1885   -0.5325 H   0  0  0  1  0  0  0  0  0  0  0  0
   10.3444   -5.9254   -2.7455 N   0  0  0  1  0  0  0  0  0  0  0  0
   11.9700   -6.3419   -4.3346 N   0  0  0  1  0  0  0  0  0  0  0  0
   12.4823   -6.9622   -4.8942 H   0  0  0  1  0  0  0  0  0  0  0  0
   12.1405   -5.3783   -4.3886 H   0  0  0  1  0  0  0  0  0  0  0  0
    5.6972  -11.2384   -3.4162 C   0  0  0  1  0  0  0  0  0  0  0  0
    6.2240  -10.7919   -4.2336 H   0  0  0  1  0  0  0  0  0  0  0  0
    4.9702  -10.5490   -3.0406 H   0  0  0  1  0  0  0  0  0  0  0  0
    7.3290  -13.8680   -2.6910 O   0  0  0  1  0  0  0  0  0  0  0  0
    6.6221  -13.9222   -2.0437 H   0  0  0  1  0  0  0  0  0  0  0  0
    5.0259  -12.4340   -3.8784 O   0  0  0  1  0  0  0  0  0  0  0  0
    4.0441  -12.4606   -5.1918 P   0  0  0  1  0  0  0  0  0  0  0  0
    5.0233  -12.0192   -6.4784 O   0  0  0  1  0  0  0  0  0  0  0  0
    3.2494  -13.7073   -5.2573 O   0  0  0  1  0  0  0  0  0  0  0  0
    2.9539  -11.3000   -4.8938 O   0  5  0  1  0  0  0  0  0  0  0  0
    4.8650  -11.6250   -8.0413 S   0  0  0  1  0  0  0  0  0  0  0  0
    6.1357  -10.9946   -8.2569 O   0  0  0  1  0  0  0  0  0  0  0  0
    6.5064  -10.7241   -7.4137 H   0  0  0  1  0  0  0  0  0  0  0  0
    4.6811  -12.8359   -8.7174 O   0  0  0  1  0  0  0  0  0  0  0  0
    3.7621  -10.7368   -8.1082 O   0  0  0  1  0  0  0  0  0  0  0  0
  1  2  1  0  0  0  0
  1  3  1  0  0  0  0
  1  5  1  0  0  0  0
  2  7  2  0  0  0  0
  2  8  1  0  0  0  0
  3  4  1  0  0  0  0
  3  9  1  0  0  0  0
  3 10  1  0  0  0  0
  5  6  1  0  0  0  0
  5 12  2  0  0  0  0
  7 12  1  0  0  0  0
  7 13  1  0  0  0  0
  8 14  2  0  0  0  0
  9 16  1  0  0  0  0
 10 11  1  0  0  0  0
 10 18  1  0  0  0  0
 10 20  1  0  0  0  0
 13 22  2  0  0  0  0
 13 23  1  0  0  0  0
 14 15  1  0  0  0  0
 14 22  1  0  0  0  0
 16 17  1  0  0  0  0
 16 18  1  0  0  0  0
 16 26  1  0  0  0  0
 18 19  1  0  0  0  0
 18 29  1  0  0  0  0
 20 21  1  0  0  0  0
 23 24  1  0  0  0  0
 23 25  1  0  0  0  0
 26 27  1  0  0  0  0
 26 28  1  0  0  0  0
 26 31  1  0  0  0  0
 29 30  1  0  0  0  0
 31 32  1  0  0  0  0
 32 33  1  0  0  0  0
 32 34  2  0  0  0  0
 32 35  1  0  0  0  0
 33 36  1  0  0  0  0
 36 37  1  0  0  0  0
 36 39  2  0  0  0  0
 36 40  2  0  0  0  0
 37 38  1  0  0  0  0
M  END
> <ConfClashScore>
0 

> <ConfOneFourInteractionScore>
-0.97752 

> <ConfScore>
-0.294897 

> <ConfScorePBest>
0.0114935 

> <ConfTolerance>
0.964203 

$$$$
ChEBI.****
  PyMOL2.5          3D                             0

 40 42  0  0  0  0  0  0  0  0999 V2000
    9.6452   -9.8511   -2.4125 N   0  0  0  1  0  0  0  0  0  0  0  0
    9.7362   -8.4832   -2.3945 C   0  0  0  1  0  0  0  0  0  0  0  0
    8.7241  -10.6987   -1.7124 C   0  0  0  1  0  0  0  0  0  0  0  0
    8.8582  -10.5777   -0.6578 H   0  0  0  1  0  0  0  0  0  0  0  0
   10.5531  -10.2689   -3.3366 C   0  0  0  1  0  0  0  0  0  0  0  0
   10.6959  -11.2732   -3.5660 H   0  0  0  1  0  0  0  0  0  0  0  0
   10.7272   -8.1612   -3.3316 C   0  0  0  1  0  0  0  0  0  0  0  0
    9.0455   -7.6281   -1.6391 N   0  0  0  1  0  0  0  0  0  0  0  0
    7.4087  -10.3905   -2.0739 O   0  0  0  1  0  0  0  0  0  0  0  0
    8.9381  -12.1668   -2.1134 C   0  0  0  1  0  0  0  0  0  0  0  0
    9.9658  -12.3589   -2.3413 H   0  0  0  1  0  0  0  0  0  0  0  0
   11.2310   -9.3141   -3.9134 N   0  0  0  1  0  0  0  0  0  0  0  0
   11.0018   -6.8040   -3.4712 C   0  0  0  1  0  0  0  0  0  0  0  0
    9.4024   -6.3726   -1.8806 C   0  0  0  1  0  0  0  0  0  0  0  0
    8.9002   -5.6482   -1.3287 H   0  0  0  1  0  0  0  0  0  0  0  0
    6.9188  -11.3024   -3.0731 C   0  0  0  1  0  0  0  0  0  0  0  0
    6.0561  -11.8209   -2.7099 H   0  0  0  1  0  0  0  0  0  0  0  0
    8.0679  -12.3028   -3.3505 C   0  0  0  1  0  0  0  0  0  0  0  0
    8.6087  -12.0332   -4.2335 H   0  0  0  1  0  0  0  0  0  0  0  0
    8.5055  -13.0519   -1.0792 O   0  0  0  1  0  0  0  0  0  0  0  0
    7.8299  -12.6211   -0.5506 H   0  0  0  1  0  0  0  0  0  0  0  0
   10.3239   -5.9118   -2.7410 N   0  0  0  1  0  0  0  0  0  0  0  0
   11.9603   -6.3720   -4.3496 N   0  0  0  1  0  0  0  0  0  0  0  0
   12.2009   -5.4226   -4.3844 H   0  0  0  1  0  0  0  0  0  0  0  0
   12.4053   -7.0123   -4.9431 H   0  0  0  1  0  0  0  0  0  0  0  0
    6.5664  -10.5613   -4.3207 C   0  0  0  1  0  0  0  0  0  0  0  0
    7.3978   -9.9676   -4.6390 H   0  0  0  1  0  0  0  0  0  0  0  0
    5.7227   -9.9279   -4.1423 H   0  0  0  1  0  0  0  0  0  0  0  0
    7.5693  -13.6345   -3.4847 O   0  0  0  1  0  0  0  0  0  0  0  0
    7.4349  -14.0157   -2.6139 H   0  0  0  1  0  0  0  0  0  0  0  0
    6.2422  -11.5397   -5.3362 O   0  0  0  1  0  0  0  0  0  0  0  0
    5.7210  -11.0714   -6.8190 P   0  0  0  1  0  0  0  0  0  0  0  0
    5.2902  -12.3086   -7.7747 O   0  0  0  1  0  0  0  0  0  0  0  0
    4.6206  -10.0822   -6.8508 O   0  0  0  1  0  0  0  0  0  0  0  0
    6.9676  -10.4037   -7.6093 O   0  5  0  1  0  0  0  0  0  0  0  0
    5.8013  -12.5221   -9.2531 S   0  0  0  1  0  0  0  0  0  0  0  0
    4.5690  -12.7989   -9.9592 O   0  0  0  1  0  0  0  0  0  0  0  0
    4.1316  -13.5530   -9.5570 H   0  0  0  1  0  0  0  0  0  0  0  0
    6.4451  -11.3061   -9.6616 O   0  0  0  1  0  0  0  0  0  0  0  0
    6.6930  -13.6566   -9.2548 O   0  0  0  1  0  0  0  0  0  0  0  0
  1  2  1  0  0  0  0
  1  3  1  0  0  0  0
  1  5  1  0  0  0  0
  2  7  2  0  0  0  0
  2  8  1  0  0  0  0
  3  4  1  0  0  0  0
  3  9  1  0  0  0  0
  3 10  1  0  0  0  0
  5  6  1  0  0  0  0
  5 12  2  0  0  0  0
  7 12  1  0  0  0  0
  7 13  1  0  0  0  0
  8 14  2  0  0  0  0
  9 16  1  0  0  0  0
 10 11  1  0  0  0  0
 10 18  1  0  0  0  0
 10 20  1  0  0  0  0
 13 22  2  0  0  0  0
 13 23  1  0  0  0  0
 14 15  1  0  0  0  0
 14 22  1  0  0  0  0
 16 17  1  0  0  0  0
 16 18  1  0  0  0  0
 16 26  1  0  0  0  0
 18 19  1  0  0  0  0
 18 29  1  0  0  0  0
 20 21  1  0  0  0  0
 23 24  1  0  0  0  0
 23 25  1  0  0  0  0
 26 27  1  0  0  0  0
 26 28  1  0  0  0  0
 26 31  1  0  0  0  0
 29 30  1  0  0  0  0
 31 32  1  0  0  0  0
 32 33  1  0  0  0  0
 32 34  2  0  0  0  0
 32 35  1  0  0  0  0
 33 36  1  0  0  0  0
 36 37  1  0  0  0  0
 36 39  2  0  0  0  0
 36 40  2  0  0  0  0
 37 38  1  0  0  0  0
M  END
> <ConfClashScore>
0 

> <ConfOneFourInteractionScore>
-0.97752 

> <ConfScore>
-0.294868 

> <ConfScorePBest>
0.0113905 

> <ConfTolerance>
0.990199 

$$$$
ChEBI.****
  PyMOL2.5          3D                             0

 40 42  0  0  0  0  0  0  0  0999 V2000
    9.6125   -9.8592   -2.4434 N   0  0  0  1  0  0  0  0  0  0  0  0
    9.7277   -8.4935   -2.4083 C   0  0  0  1  0  0  0  0  0  0  0  0
    8.6925  -10.6878   -1.6636 C   0  0  0  1  0  0  0  0  0  0  0  0
    7.6836  -10.4224   -1.9017 H   0  0  0  1  0  0  0  0  0  0  0  0
   10.5313  -10.2835   -3.3538 C   0  0  0  1  0  0  0  0  0  0  0  0
   10.6606  -11.2877   -3.5914 H   0  0  0  1  0  0  0  0  0  0  0  0
   10.7431   -8.1794   -3.3216 C   0  0  0  1  0  0  0  0  0  0  0  0
    9.0373   -7.6342   -1.6574 N   0  0  0  1  0  0  0  0  0  0  0  0
    8.9144  -12.0429   -1.9291 O   0  0  0  1  0  0  0  0  0  0  0  0
    8.9525  -10.5051   -0.1599 C   0  0  0  1  0  0  0  0  0  0  0  0
    9.2874   -9.5121    0.0561 H   0  0  0  1  0  0  0  0  0  0  0  0
   11.2378   -9.3350   -3.9060 N   0  0  0  1  0  0  0  0  0  0  0  0
   11.0449   -6.8260   -3.4405 C   0  0  0  1  0  0  0  0  0  0  0  0
    9.4215   -6.3829   -1.8777 C   0  0  0  1  0  0  0  0  0  0  0  0
    8.9213   -5.6554   -1.3279 H   0  0  0  1  0  0  0  0  0  0  0  0
    9.7354  -12.6426   -0.9112 C   0  0  0  1  0  0  0  0  0  0  0  0
    9.2096  -13.4444   -0.4362 H   0  0  0  1  0  0  0  0  0  0  0  0
   10.0451  -11.5236    0.1136 C   0  0  0  1  0  0  0  0  0  0  0  0
   11.0146  -11.1035   -0.0558 H   0  0  0  1  0  0  0  0  0  0  0  0
    7.7798  -10.7896    0.6042 O   0  0  0  1  0  0  0  0  0  0  0  0
    7.5811  -11.7273    0.5493 H   0  0  0  1  0  0  0  0  0  0  0  0
   10.3684   -5.9296   -2.7142 N   0  0  0  1  0  0  0  0  0  0  0  0
   11.9672   -6.3378   -4.3515 N   0  0  0  1  0  0  0  0  0  0  0  0
   12.4300   -6.9531   -4.9578 H   0  0  0  1  0  0  0  0  0  0  0  0
   12.1571   -5.3771   -4.3895 H   0  0  0  1  0  0  0  0  0  0  0  0
   11.0019  -13.1616   -1.5082 C   0  0  0  1  0  0  0  0  0  0  0  0
   10.7794  -13.7930   -2.3429 H   0  0  0  1  0  0  0  0  0  0  0  0
   11.5490  -13.7176   -0.7757 H   0  0  0  1  0  0  0  0  0  0  0  0
    9.9661  -12.0157    1.4522 O   0  0  0  1  0  0  0  0  0  0  0  0
   10.1783  -11.3091    2.0664 H   0  0  0  1  0  0  0  0  0  0  0  0
   11.7699  -12.0384   -1.9394 O   0  0  0  1  0  0  0  0  0  0  0  0
   13.2369  -12.0247   -2.6725 P   0  0  0  1  0  0  0  0  0  0  0  0
   14.4612  -12.4398   -1.6059 O   0  0  0  1  0  0  0  0  0  0  0  0
   13.3453  -12.9963   -3.7837 O   0  0  0  1  0  0  0  0  0  0  0  0
   13.5991  -10.5222   -3.1579 O   0  5  0  1  0  0  0  0  0  0  0  0
   15.5873  -13.4822   -1.4966 S   0  0  0  1  0  0  0  0  0  0  0  0
   14.9804  -14.7095   -1.8776 O   0  0  0  1  0  0  0  0  0  0  0  0
   14.1068  -14.7707   -1.4843 H   0  0  0  1  0  0  0  0  0  0  0  0
   16.2769  -12.8821   -2.5069 O   0  0  0  1  0  0  0  0  0  0  0  0
   15.8880  -13.3775   -0.1818 O   0  0  0  1  0  0  0  0  0  0  0  0
  1  2  1  0  0  0  0
  1  3  1  0  0  0  0
  1  5  1  0  0  0  0
  2  7  2  0  0  0  0
  2  8  1  0  0  0  0
  3  4  1  0  0  0  0
  3  9  1  0  0  0  0
  3 10  1  0  0  0  0
  5  6  1  0  0  0  0
  5 12  2  0  0  0  0
  7 12  1  0  0  0  0
  7 13  1  0  0  0  0
  8 14  2  0  0  0  0
  9 16  1  0  0  0  0
 10 11  1  0  0  0  0
 10 18  1  0  0  0  0
 10 20  1  0  0  0  0
 13 22  2  0  0  0  0
 13 23  1  0  0  0  0
 14 15  1  0  0  0  0
 14 22  1  0  0  0  0
 16 17  1  0  0  0  0
 16 18  1  0  0  0  0
 16 26  1  0  0  0  0
 18 19  1  0  0  0  0
 18 29  1  0  0  0  0
 20 21  1  0  0  0  0
 23 24  1  0  0  0  0
 23 25  1  0  0  0  0
 26 27  1  0  0  0  0
 26 28  1  0  0  0  0
 26 31  1  0  0  0  0
 29 30  1  0  0  0  0
 31 32  1  0  0  0  0
 32 33  1  0  0  0  0
 32 34  2  0  0  0  0
 32 35  1  0  0  0  0
 33 36  1  0  0  0  0
 36 37  1  0  0  0  0
 36 39  2  0  0  0  0
 36 40  2  0  0  0  0
 37 38  1  0  0  0  0
M  END
> <ConfClashScore>
0 

> <ConfOneFourInteractionScore>
-0.986765 

> <ConfScore>
-0.294011 

> <ConfScorePBest>
0.0112875 

> <ConfTolerance>
0.757238 

$$$$
ChEBI.****
  PyMOL2.5          3D                             0

 40 42  0  0  0  0  0  0  0  0999 V2000
    9.6276   -9.8467   -2.4327 N   0  0  0  1  0  0  0  0  0  0  0  0
    9.7275   -8.4795   -2.4061 C   0  0  0  1  0  0  0  0  0  0  0  0
    8.7435  -10.7352   -1.6514 C   0  0  0  1  0  0  0  0  0  0  0  0
    9.1670  -10.8982   -0.6824 H   0  0  0  1  0  0  0  0  0  0  0  0
   10.5360  -10.2649   -3.3561 C   0  0  0  1  0  0  0  0  0  0  0  0
   10.6731  -11.2687   -3.5909 H   0  0  0  1  0  0  0  0  0  0  0  0
   10.7239   -8.1584   -3.3378 C   0  0  0  1  0  0  0  0  0  0  0  0
    9.0397   -7.6244   -1.6481 N   0  0  0  1  0  0  0  0  0  0  0  0
    7.4768  -10.1532   -1.5247 O   0  0  0  1  0  0  0  0  0  0  0  0
    8.5772  -12.0779   -2.3805 C   0  0  0  1  0  0  0  0  0  0  0  0
    9.3209  -12.1988   -3.1403 H   0  0  0  1  0  0  0  0  0  0  0  0
   11.2222   -9.3111   -3.9247 N   0  0  0  1  0  0  0  0  0  0  0  0
   11.0079   -6.8022   -3.4683 C   0  0  0  1  0  0  0  0  0  0  0  0
    9.4056   -6.3699   -1.8809 C   0  0  0  1  0  0  0  0  0  0  0  0
    8.9061   -5.6455   -1.3264 H   0  0  0  1  0  0  0  0  0  0  0  0
    6.4440  -11.0546   -2.0271 C   0  0  0  1  0  0  0  0  0  0  0  0
    6.0148  -11.6221   -1.2280 H   0  0  0  1  0  0  0  0  0  0  0  0
    7.1752  -11.9587   -2.9929 C   0  0  0  1  0  0  0  0  0  0  0  0
    7.2199  -11.5201   -3.9679 H   0  0  0  1  0  0  0  0  0  0  0  0
    8.6472  -13.1617   -1.4749 O   0  0  0  1  0  0  0  0  0  0  0  0
    8.0119  -13.0296   -0.7674 H   0  0  0  1  0  0  0  0  0  0  0  0
   10.3332   -5.9099   -2.7352 N   0  0  0  1  0  0  0  0  0  0  0  0
   11.9723   -6.3713   -4.3407 N   0  0  0  1  0  0  0  0  0  0  0  0
   12.1529   -5.4129   -4.4371 H   0  0  0  1  0  0  0  0  0  0  0  0
   12.4816   -7.0214   -4.8683 H   0  0  0  1  0  0  0  0  0  0  0  0
    5.3701  -10.2899   -2.7284 C   0  0  0  1  0  0  0  0  0  0  0  0
    4.6966  -10.9668   -3.2111 H   0  0  0  1  0  0  0  0  0  0  0  0
    5.8038   -9.6373   -3.4570 H   0  0  0  1  0  0  0  0  0  0  0  0
    6.5431  -13.2370   -3.0737 O   0  0  0  1  0  0  0  0  0  0  0  0
    6.8282  -13.7825   -2.3370 H   0  0  0  1  0  0  0  0  0  0  0  0
    4.6609   -9.5152   -1.7330 O   0  0  0  1  0  0  0  0  0  0  0  0
    3.5094   -8.4099   -2.1098 P   0  0  0  1  0  0  0  0  0  0  0  0
    4.0927   -7.1388   -2.9306 O   0  0  0  1  0  0  0  0  0  0  0  0
    2.3304   -8.9878   -2.7928 O   0  0  0  1  0  0  0  0  0  0  0  0
    2.8941   -7.8445   -0.7220 O   0  5  0  1  0  0  0  0  0  0  0  0
    5.2243   -7.2126   -3.9702 S   0  0  0  1  0  0  0  0  0  0  0  0
    4.8405   -8.2635   -4.8465 O   0  0  0  1  0  0  0  0  0  0  0  0
    4.4389   -8.9730   -4.3395 H   0  0  0  1  0  0  0  0  0  0  0  0
    4.9093   -5.9731   -4.4399 O   0  0  0  1  0  0  0  0  0  0  0  0
    6.2748   -7.4946   -3.1658 O   0  0  0  1  0  0  0  0  0  0  0  0
  1  2  1  0  0  0  0
  1  3  1  0  0  0  0
  1  5  1  0  0  0  0
  2  7  2  0  0  0  0
  2  8  1  0  0  0  0
  3  4  1  0  0  0  0
  3  9  1  0  0  0  0
  3 10  1  0  0  0  0
  5  6  1  0  0  0  0
  5 12  2  0  0  0  0
  7 12  1  0  0  0  0
  7 13  1  0  0  0  0
  8 14  2  0  0  0  0
  9 16  1  0  0  0  0
 10 11  1  0  0  0  0
 10 18  1  0  0  0  0
 10 20  1  0  0  0  0
 13 22  2  0  0  0  0
 13 23  1  0  0  0  0
 14 15  1  0  0  0  0
 14 22  1  0  0  0  0
 16 17  1  0  0  0  0
 16 18  1  0  0  0  0
 16 26  1  0  0  0  0
 18 19  1  0  0  0  0
 18 29  1  0  0  0  0
 20 21  1  0  0  0  0
 23 24  1  0  0  0  0
 23 25  1  0  0  0  0
 26 27  1  0  0  0  0
 26 28  1  0  0  0  0
 26 31  1  0  0  0  0
 29 30  1  0  0  0  0
 31 32  1  0  0  0  0
 32 33  1  0  0  0  0
 32 34  2  0  0  0  0
 32 35  1  0  0  0  0
 33 36  1  0  0  0  0
 36 37  1  0  0  0  0
 36 39  2  0  0  0  0
 36 40  2  0  0  0  0
 37 38  1  0  0  0  0
M  END
> <ConfClashScore>
0 

> <ConfOneFourInteractionScore>
-0.972533 

> <ConfScore>
-0.293715 

> <ConfScorePBest>
0.0111845 

> <ConfTolerance>
1.08741 

$$$$
ChEBI.****
  PyMOL2.5          3D                             0

 40 42  0  0  0  0  0  0  0  0999 V2000
    9.5991   -9.8547   -2.4551 N   0  0  0  1  0  0  0  0  0  0  0  0
    9.7117   -8.4886   -2.4269 C   0  0  0  1  0  0  0  0  0  0  0  0
    8.8079  -10.7025   -1.5419 C   0  0  0  1  0  0  0  0  0  0  0  0
    9.3497  -11.6002   -1.3286 H   0  0  0  1  0  0  0  0  0  0  0  0
   10.5128  -10.2812   -3.3695 C   0  0  0  1  0  0  0  0  0  0  0  0
   10.6426  -11.2862   -3.6034 H   0  0  0  1  0  0  0  0  0  0  0  0
   10.7204   -8.1766   -3.3484 C   0  0  0  1  0  0  0  0  0  0  0  0
    9.0245   -7.6272   -1.6755 N   0  0  0  1  0  0  0  0  0  0  0  0
    8.5503  -10.0093   -0.3535 O   0  0  0  1  0  0  0  0  0  0  0  0
    7.4583  -11.0494   -2.1902 C   0  0  0  1  0  0  0  0  0  0  0  0
    7.4708  -10.8439   -3.2402 H   0  0  0  1  0  0  0  0  0  0  0  0
   11.2137   -9.3338   -3.9307 N   0  0  0  1  0  0  0  0  0  0  0  0
   11.0186   -6.8231   -3.4754 C   0  0  0  1  0  0  0  0  0  0  0  0
    9.4046   -6.3761   -1.9040 C   0  0  0  1  0  0  0  0  0  0  0  0
    8.9065   -5.6472   -1.3543 H   0  0  0  1  0  0  0  0  0  0  0  0
    7.1146   -9.9483   -0.0945 C   0  0  0  1  0  0  0  0  0  0  0  0
    6.8147  -10.7359    0.5647 H   0  0  0  1  0  0  0  0  0  0  0  0
    6.4820  -10.1202   -1.4565 C   0  0  0  1  0  0  0  0  0  0  0  0
    6.3974   -9.1800   -1.9601 H   0  0  0  1  0  0  0  0  0  0  0  0
    7.1255  -12.4075   -1.9789 O   0  0  0  1  0  0  0  0  0  0  0  0
    6.1706  -12.5049   -1.9645 H   0  0  0  1  0  0  0  0  0  0  0  0
   10.3450   -5.9247   -2.7488 N   0  0  0  1  0  0  0  0  0  0  0  0
   11.9849   -6.3469   -4.3218 N   0  0  0  1  0  0  0  0  0  0  0  0
   12.1238   -5.3811   -4.4129 H   0  0  0  1  0  0  0  0  0  0  0  0
   12.5372   -6.9721   -4.8361 H   0  0  0  1  0  0  0  0  0  0  0  0
    6.7444   -8.6463    0.4931 C   0  0  0  1  0  0  0  0  0  0  0  0
    5.6798   -8.5911    0.5848 H   0  0  0  1  0  0  0  0  0  0  0  0
    7.0891   -7.8605   -0.1462 H   0  0  0  1  0  0  0  0  0  0  0  0
    5.1906  -10.7205   -1.3472 O   0  0  0  1  0  0  0  0  0  0  0  0
    4.5609  -10.0702   -1.0274 H   0  0  0  1  0  0  0  0  0  0  0  0
    7.3452   -8.4934    1.8041 O   0  0  0  1  0  0  0  0  0  0  0  0
    7.2572   -7.1065    2.6748 P   0  0  0  1  0  0  0  0  0  0  0  0
    5.6104   -6.8949    2.9031 O   0  0  0  1  0  0  0  0  0  0  0  0
    7.9756   -7.2152    3.9642 O   0  0  0  1  0  0  0  0  0  0  0  0
    7.7980   -5.9882    1.6350 O   0  5  0  1  0  0  0  0  0  0  0  0
    4.4737   -7.3562    3.9365 S   0  0  0  1  0  0  0  0  0  0  0  0
    3.7032   -6.1668    4.2391 O   0  0  0  1  0  0  0  0  0  0  0  0
    4.2279   -5.3869    4.0443 H   0  0  0  1  0  0  0  0  0  0  0  0
    3.7699   -8.3497    3.1764 O   0  0  0  1  0  0  0  0  0  0  0  0
    5.1655   -7.8671    5.0892 O   0  0  0  1  0  0  0  0  0  0  0  0
  1  2  1  0  0  0  0
  1  3  1  0  0  0  0
  1  5  1  0  0  0  0
  2  7  2  0  0  0  0
  2  8  1  0  0  0  0
  3  4  1  0  0  0  0
  3  9  1  0  0  0  0
  3 10  1  0  0  0  0
  5  6  1  0  0  0  0
  5 12  2  0  0  0  0
  7 12  1  0  0  0  0
  7 13  1  0  0  0  0
  8 14  2  0  0  0  0
  9 16  1  0  0  0  0
 10 11  1  0  0  0  0
 10 18  1  0  0  0  0
 10 20  1  0  0  0  0
 13 22  2  0  0  0  0
 13 23  1  0  0  0  0
 14 15  1  0  0  0  0
 14 22  1  0  0  0  0
 16 17  1  0  0  0  0
 16 18  1  0  0  0  0
 16 26  1  0  0  0  0
 18 19  1  0  0  0  0
 18 29  1  0  0  0  0
 20 21  1  0  0  0  0
 23 24  1  0  0  0  0
 23 25  1  0  0  0  0
 26 27  1  0  0  0  0
 26 28  1  0  0  0  0
 26 31  1  0  0  0  0
 29 30  1  0  0  0  0
 31 32  1  0  0  0  0
 32 33  1  0  0  0  0
 32 34  2  0  0  0  0
 32 35  1  0  0  0  0
 33 36  1  0  0  0  0
 36 37  1  0  0  0  0
 36 39  2  0  0  0  0
 36 40  2  0  0  0  0
 37 38  1  0  0  0  0
M  END
> <ConfClashScore>
0 

> <ConfOneFourInteractionScore>
-0.97979 

> <ConfScore>
-0.293375 

> <ConfScorePBest>
0.0110815 

> <ConfTolerance>
0.969879 

$$$$
ChEBI.****
  PyMOL2.5          3D                             0

 40 42  0  0  0  0  0  0  0  0999 V2000
    9.6277   -9.8698   -2.4185 N   0  0  0  1  0  0  0  0  0  0  0  0
    9.7290   -8.5025   -2.4100 C   0  0  0  1  0  0  0  0  0  0  0  0
    8.7145  -10.7033   -1.6024 C   0  0  0  1  0  0  0  0  0  0  0  0
    7.7090  -10.5702   -1.9432 H   0  0  0  1  0  0  0  0  0  0  0  0
   10.5400  -10.3014   -3.3318 C   0  0  0  1  0  0  0  0  0  0  0  0
   10.6770  -11.3085   -3.5524 H   0  0  0  1  0  0  0  0  0  0  0  0
   10.7301   -8.1951   -3.3412 C   0  0  0  1  0  0  0  0  0  0  0  0
    9.0386   -7.6365   -1.6668 N   0  0  0  1  0  0  0  0  0  0  0  0
    9.0780  -12.0509   -1.7095 O   0  0  0  1  0  0  0  0  0  0  0  0
    8.8216  -10.2998   -0.1233 C   0  0  0  1  0  0  0  0  0  0  0  0
    9.3100   -9.3538   -0.0161 H   0  0  0  1  0  0  0  0  0  0  0  0
   11.2299   -9.3561   -3.9100 N   0  0  0  1  0  0  0  0  0  0  0  0
   11.0163   -6.8411   -3.4887 C   0  0  0  1  0  0  0  0  0  0  0  0
    9.4070   -6.3856   -1.9148 C   0  0  0  1  0  0  0  0  0  0  0  0
    8.9058   -5.6532   -1.3726 H   0  0  0  1  0  0  0  0  0  0  0  0
    9.3279  -12.6226   -0.3894 C   0  0  0  1  0  0  0  0  0  0  0  0
    8.4556  -13.1207   -0.0209 H   0  0  0  1  0  0  0  0  0  0  0  0
    9.6690  -11.4306    0.4751 C   0  0  0  1  0  0  0  0  0  0  0  0
   10.7121  -11.2000    0.4142 H   0  0  0  1  0  0  0  0  0  0  0  0
    7.5322  -10.2430    0.4896 O   0  0  0  1  0  0  0  0  0  0  0  0
    6.8570  -10.4300   -0.1666 H   0  0  0  1  0  0  0  0  0  0  0  0
   10.3392   -5.9382   -2.7710 N   0  0  0  1  0  0  0  0  0  0  0  0
   11.9743   -6.3033   -4.3412 N   0  0  0  1  0  0  0  0  0  0  0  0
   12.6140   -6.8923   -4.7932 H   0  0  0  1  0  0  0  0  0  0  0  0
   12.0098   -5.3353   -4.4900 H   0  0  0  1  0  0  0  0  0  0  0  0
   10.4384  -13.5594   -0.4360 C   0  0  0  1  0  0  0  0  0  0  0  0
   11.2839  -13.0656   -0.8676 H   0  0  0  1  0  0  0  0  0  0  0  0
   10.1588  -14.3904   -1.0493 H   0  0  0  1  0  0  0  0  0  0  0  0
    9.3124  -11.6695    1.8374 O   0  0  0  1  0  0  0  0  0  0  0  0
   10.1086  -11.7627    2.3655 H   0  0  0  1  0  0  0  0  0  0  0  0
   10.8116  -14.0560    0.8744 O   0  0  0  1  0  0  0  0  0  0  0  0
   11.8863  -15.2846    1.0332 P   0  0  0  1  0  0  0  0  0  0  0  0
   11.2212  -16.6395    0.4406 O   0  0  0  1  0  0  0  0  0  0  0  0
   13.1646  -14.8632    0.4177 O   0  0  0  1  0  0  0  0  0  0  0  0
   12.1040  -15.5457    2.6172 O   0  5  0  1  0  0  0  0  0  0  0  0
   11.9855  -17.6985   -0.5241 S   0  0  0  1  0  0  0  0  0  0  0  0
   10.9284  -18.3965   -1.2279 O   0  0  0  1  0  0  0  0  0  0  0  0
   10.7072  -17.9179   -2.0302 H   0  0  0  1  0  0  0  0  0  0  0  0
   12.8090  -16.8836   -1.3909 O   0  0  0  1  0  0  0  0  0  0  0  0
   12.7122  -18.4984    0.4247 O   0  0  0  1  0  0  0  0  0  0  0  0
  1  2  1  0  0  0  0
  1  3  1  0  0  0  0
  1  5  1  0  0  0  0
  2  7  2  0  0  0  0
  2  8  1  0  0  0  0
  3  4  1  0  0  0  0
  3  9  1  0  0  0  0
  3 10  1  0  0  0  0
  5  6  1  0  0  0  0
  5 12  2  0  0  0  0
  7 12  1  0  0  0  0
  7 13  1  0  0  0  0
  8 14  2  0  0  0  0
  9 16  1  0  0  0  0
 10 11  1  0  0  0  0
 10 18  1  0  0  0  0
 10 20  1  0  0  0  0
 13 22  2  0  0  0  0
 13 23  1  0  0  0  0
 14 15  1  0  0  0  0
 14 22  1  0  0  0  0
 16 17  1  0  0  0  0
 16 18  1  0  0  0  0
 16 26  1  0  0  0  0
 18 19  1  0  0  0  0
 18 29  1  0  0  0  0
 20 21  1  0  0  0  0
 23 24  1  0  0  0  0
 23 25  1  0  0  0  0
 26 27  1  0  0  0  0
 26 28  1  0  0  0  0
 26 31  1  0  0  0  0
 29 30  1  0  0  0  0
 31 32  1  0  0  0  0
 32 33  1  0  0  0  0
 32 34  2  0  0  0  0
 32 35  1  0  0  0  0
 33 36  1  0  0  0  0
 36 37  1  0  0  0  0
 36 39  2  0  0  0  0
 36 40  2  0  0  0  0
 37 38  1  0  0  0  0
M  END
> <ConfClashScore>
0 

> <ConfOneFourInteractionScore>
-0.97979 

> <ConfScore>
-0.293205 

> <ConfScorePBest>
0.0109785 

> <ConfTolerance>
0.917882 

$$$$
ChEBI.****
  PyMOL2.5          3D                             0

 40 42  0  0  0  0  0  0  0  0999 V2000
    9.6389   -9.8521   -2.4302 N   0  0  0  1  0  0  0  0  0  0  0  0
    9.7402   -8.4852   -2.3989 C   0  0  0  1  0  0  0  0  0  0  0  0
    8.6699  -10.6844   -1.6906 C   0  0  0  1  0  0  0  0  0  0  0  0
    7.6851  -10.2869   -1.8209 H   0  0  0  1  0  0  0  0  0  0  0  0
   10.5377  -10.2671   -3.3645 C   0  0  0  1  0  0  0  0  0  0  0  0
   10.6716  -11.2700   -3.6049 H   0  0  0  1  0  0  0  0  0  0  0  0
   10.7275   -8.1609   -3.3391 C   0  0  0  1  0  0  0  0  0  0  0  0
    9.0607   -7.6328   -1.6304 N   0  0  0  1  0  0  0  0  0  0  0  0
    8.7287  -12.0168   -2.1220 O   0  0  0  1  0  0  0  0  0  0  0  0
    9.0365  -10.7521   -0.2010 C   0  0  0  1  0  0  0  0  0  0  0  0
   10.0976  -10.7398   -0.0639 H   0  0  0  1  0  0  0  0  0  0  0  0
   11.2190   -9.3115   -3.9359 N   0  0  0  1  0  0  0  0  0  0  0  0
   11.0113   -6.8044   -3.4667 C   0  0  0  1  0  0  0  0  0  0  0  0
    9.4253   -6.3775   -1.8615 C   0  0  0  1  0  0  0  0  0  0  0  0
    8.9321   -5.6551   -1.2990 H   0  0  0  1  0  0  0  0  0  0  0  0
    8.6194  -12.9470   -1.0211 C   0  0  0  1  0  0  0  0  0  0  0  0
    7.7701  -13.5847   -1.1510 H   0  0  0  1  0  0  0  0  0  0  0  0
    8.4493  -12.0722    0.2245 C   0  0  0  1  0  0  0  0  0  0  0  0
    8.9848  -12.4802    1.0561 H   0  0  0  1  0  0  0  0  0  0  0  0
    8.4496   -9.6700    0.5235 O   0  0  0  1  0  0  0  0  0  0  0  0
    8.8502   -8.8432    0.2449 H   0  0  0  1  0  0  0  0  0  0  0  0
   10.3447   -5.9147   -2.7232 N   0  0  0  1  0  0  0  0  0  0  0  0
   11.9634   -6.3723   -4.3434 N   0  0  0  1  0  0  0  0  0  0  0  0
   12.3795   -7.0046   -4.9658 H   0  0  0  1  0  0  0  0  0  0  0  0
   12.2312   -5.4296   -4.3506 H   0  0  0  1  0  0  0  0  0  0  0  0
    9.8551  -13.7785   -0.9128 C   0  0  0  1  0  0  0  0  0  0  0  0
   10.6870  -13.1617   -0.6438 H   0  0  0  1  0  0  0  0  0  0  0  0
   10.0543  -14.2588   -1.8480 H   0  0  0  1  0  0  0  0  0  0  0  0
    7.0699  -11.9325    0.5679 O   0  0  0  1  0  0  0  0  0  0  0  0
    6.6599  -12.7996    0.6065 H   0  0  0  1  0  0  0  0  0  0  0  0
    9.6270  -14.7731    0.1131 O   0  0  0  1  0  0  0  0  0  0  0  0
   10.7171  -15.9387    0.4906 P   0  0  0  1  0  0  0  0  0  0  0  0
    9.7619  -16.8943    1.3872 O   0  0  0  1  0  0  0  0  0  0  0  0
   11.1802  -16.6406   -0.7274 O   0  0  0  1  0  0  0  0  0  0  0  0
   11.7818  -15.1905    1.4555 O   0  5  0  1  0  0  0  0  0  0  0  0
    8.2242  -16.8508    1.3786 S   0  0  0  1  0  0  0  0  0  0  0  0
    7.8902  -15.7213    2.1813 O   0  0  0  1  0  0  0  0  0  0  0  0
    8.6197  -15.0973    2.1759 H   0  0  0  1  0  0  0  0  0  0  0  0
    8.2128  -16.5880    0.0418 O   0  0  0  1  0  0  0  0  0  0  0  0
    7.9444  -18.0510    1.9366 O   0  0  0  1  0  0  0  0  0  0  0  0
  1  2  1  0  0  0  0
  1  3  1  0  0  0  0
  1  5  1  0  0  0  0
  2  7  2  0  0  0  0
  2  8  1  0  0  0  0
  3  4  1  0  0  0  0
  3  9  1  0  0  0  0
  3 10  1  0  0  0  0
  5  6  1  0  0  0  0
  5 12  2  0  0  0  0
  7 12  1  0  0  0  0
  7 13  1  0  0  0  0
  8 14  2  0  0  0  0
  9 16  1  0  0  0  0
 10 11  1  0  0  0  0
 10 18  1  0  0  0  0
 10 20  1  0  0  0  0
 13 22  2  0  0  0  0
 13 23  1  0  0  0  0
 14 15  1  0  0  0  0
 14 22  1  0  0  0  0
 16 17  1  0  0  0  0
 16 18  1  0  0  0  0
 16 26  1  0  0  0  0
 18 19  1  0  0  0  0
 18 29  1  0  0  0  0
 20 21  1  0  0  0  0
 23 24  1  0  0  0  0
 23 25  1  0  0  0  0
 26 27  1  0  0  0  0
 26 28  1  0  0  0  0
 26 31  1  0  0  0  0
 29 30  1  0  0  0  0
 31 32  1  0  0  0  0
 32 33  1  0  0  0  0
 32 34  2  0  0  0  0
 32 35  1  0  0  0  0
 33 36  1  0  0  0  0
 36 37  1  0  0  0  0
 36 39  2  0  0  0  0
 36 40  2  0  0  0  0
 37 38  1  0  0  0  0
M  END
> <ConfClashScore>
0 

> <ConfOneFourInteractionScore>
-0.965853 

> <ConfScore>
-0.292211 

> <ConfScorePBest>
0.0108755 

> <ConfTolerance>
1.00301 

$$$$
ChEBI.****
  PyMOL2.5          3D                             0

 40 42  0  0  0  0  0  0  0  0999 V2000
    9.6343   -9.8634   -2.4299 N   0  0  0  1  0  0  0  0  0  0  0  0
    9.7319   -8.4959   -2.4126 C   0  0  0  1  0  0  0  0  0  0  0  0
    8.7026  -10.6555   -1.5937 C   0  0  0  1  0  0  0  0  0  0  0  0
    9.2581  -11.3547   -1.0043 H   0  0  0  1  0  0  0  0  0  0  0  0
   10.5470  -10.2865   -3.3468 C   0  0  0  1  0  0  0  0  0  0  0  0
   10.6865  -11.2917   -3.5741 H   0  0  0  1  0  0  0  0  0  0  0  0
   10.7313   -8.1797   -3.3426 C   0  0  0  1  0  0  0  0  0  0  0  0
    9.0397   -7.6367   -1.6632 N   0  0  0  1  0  0  0  0  0  0  0  0
    7.9341   -9.8162   -0.7752 O   0  0  0  1  0  0  0  0  0  0  0  0
    7.6696  -11.3809   -2.4682 C   0  0  0  1  0  0  0  0  0  0  0  0
    7.4117  -10.7959   -3.3262 H   0  0  0  1  0  0  0  0  0  0  0  0
   11.2338   -9.3356   -3.9195 N   0  0  0  1  0  0  0  0  0  0  0  0
   11.0136   -6.8239   -3.4815 C   0  0  0  1  0  0  0  0  0  0  0  0
    9.4045   -6.3832   -1.9033 C   0  0  0  1  0  0  0  0  0  0  0  0
    8.9018   -5.6557   -1.3559 H   0  0  0  1  0  0  0  0  0  0  0  0
    6.5597  -10.2554   -0.6890 C   0  0  0  1  0  0  0  0  0  0  0  0
    6.2960  -10.4672    0.3262 H   0  0  0  1  0  0  0  0  0  0  0  0
    6.4941  -11.5283   -1.5382 C   0  0  0  1  0  0  0  0  0  0  0  0
    5.5758  -11.5778   -2.0852 H   0  0  0  1  0  0  0  0  0  0  0  0
    8.1561  -12.6561   -2.8892 O   0  0  0  1  0  0  0  0  0  0  0  0
    8.9688  -12.5406   -3.3870 H   0  0  0  1  0  0  0  0  0  0  0  0
   10.3347   -5.9277   -2.7573 N   0  0  0  1  0  0  0  0  0  0  0  0
   11.9693   -6.3434   -4.3374 N   0  0  0  1  0  0  0  0  0  0  0  0
   12.1812   -5.3866   -4.3479 H   0  0  0  1  0  0  0  0  0  0  0  0
   12.4411   -6.9564   -4.9391 H   0  0  0  1  0  0  0  0  0  0  0  0
    5.6409   -9.2127   -1.2355 C   0  0  0  1  0  0  0  0  0  0  0  0
    4.6365   -9.5814   -1.2461 H   0  0  0  1  0  0  0  0  0  0  0  0
    5.9363   -8.9521   -2.2304 H   0  0  0  1  0  0  0  0  0  0  0  0
    6.6277  -12.6945   -0.7244 O   0  0  0  1  0  0  0  0  0  0  0  0
    7.3230  -13.2541   -1.0780 H   0  0  0  1  0  0  0  0  0  0  0  0
    5.7311   -8.0530   -0.3749 O   0  0  0  1  0  0  0  0  0  0  0  0
    4.6904   -6.7969   -0.5449 P   0  0  0  1  0  0  0  0  0  0  0  0
    5.3703   -5.6797    0.4137 O   0  0  0  1  0  0  0  0  0  0  0  0
    4.6825   -6.2707   -1.9282 O   0  0  0  1  0  0  0  0  0  0  0  0
    3.2013   -7.0824    0.0257 O   0  5  0  1  0  0  0  0  0  0  0  0
    5.7381   -4.1510   -0.0506 S   0  0  0  1  0  0  0  0  0  0  0  0
    5.9150   -3.4917    1.2006 O   0  0  0  1  0  0  0  0  0  0  0  0
    5.1029   -3.5469    1.7096 H   0  0  0  1  0  0  0  0  0  0  0  0
    6.8905   -4.4632   -0.8020 O   0  0  0  1  0  0  0  0  0  0  0  0
    4.7024   -3.5719   -0.8317 O   0  0  0  1  0  0  0  0  0  0  0  0
  1  2  1  0  0  0  0
  1  3  1  0  0  0  0
  1  5  1  0  0  0  0
  2  7  2  0  0  0  0
  2  8  1  0  0  0  0
  3  4  1  0  0  0  0
  3  9  1  0  0  0  0
  3 10  1  0  0  0  0
  5  6  1  0  0  0  0
  5 12  2  0  0  0  0
  7 12  1  0  0  0  0
  7 13  1  0  0  0  0
  8 14  2  0  0  0  0
  9 16  1  0  0  0  0
 10 11  1  0  0  0  0
 10 18  1  0  0  0  0
 10 20  1  0  0  0  0
 13 22  2  0  0  0  0
 13 23  1  0  0  0  0
 14 15  1  0  0  0  0
 14 22  1  0  0  0  0
 16 17  1  0  0  0  0
 16 18  1  0  0  0  0
 16 26  1  0  0  0  0
 18 19  1  0  0  0  0
 18 29  1  0  0  0  0
 20 21  1  0  0  0  0
 23 24  1  0  0  0  0
 23 25  1  0  0  0  0
 26 27  1  0  0  0  0
 26 28  1  0  0  0  0
 26 31  1  0  0  0  0
 29 30  1  0  0  0  0
 31 32  1  0  0  0  0
 32 33  1  0  0  0  0
 32 34  2  0  0  0  0
 32 35  1  0  0  0  0
 33 36  1  0  0  0  0
 36 37  1  0  0  0  0
 36 39  2  0  0  0  0
 36 40  2  0  0  0  0
 37 38  1  0  0  0  0
M  END
> <ConfClashScore>
0 

> <ConfOneFourInteractionScore>
-0.97979 

> <ConfScore>
-0.291665 

> <ConfScorePBest>
0.0107725 

> <ConfTolerance>
1.03307 

$$$$
ChEBI.****
  PyMOL2.5          3D                             0

 40 42  0  0  0  0  0  0  0  0999 V2000
    9.6208   -9.8574   -2.4343 N   0  0  0  1  0  0  0  0  0  0  0  0
    9.7295   -8.4910   -2.4094 C   0  0  0  1  0  0  0  0  0  0  0  0
    8.7144  -10.6911   -1.6273 C   0  0  0  1  0  0  0  0  0  0  0  0
    7.7186  -10.6099   -2.0102 H   0  0  0  1  0  0  0  0  0  0  0  0
   10.5244  -10.2824   -3.3593 C   0  0  0  1  0  0  0  0  0  0  0  0
   10.6544  -11.2874   -3.5933 H   0  0  0  1  0  0  0  0  0  0  0  0
   10.7257   -8.1772   -3.3437 C   0  0  0  1  0  0  0  0  0  0  0  0
    9.0489   -7.6306   -1.6507 N   0  0  0  1  0  0  0  0  0  0  0  0
    9.1485  -12.0634   -1.6365 O   0  0  0  1  0  0  0  0  0  0  0  0
    8.7600  -10.2722   -0.1768 C   0  0  0  1  0  0  0  0  0  0  0  0
    9.7406   -9.9471    0.1018 H   0  0  0  1  0  0  0  0  0  0  0  0
   11.2153   -9.3337   -3.9305 N   0  0  0  1  0  0  0  0  0  0  0  0
   11.0181   -6.8230   -3.4764 C   0  0  0  1  0  0  0  0  0  0  0  0
    9.4223   -6.3787   -1.8857 C   0  0  0  1  0  0  0  0  0  0  0  0
    8.9288   -5.6505   -1.3309 H   0  0  0  1  0  0  0  0  0  0  0  0
    9.0068  -12.6275   -0.3196 C   0  0  0  1  0  0  0  0  0  0  0  0
    8.3718  -13.4881   -0.3512 H   0  0  0  1  0  0  0  0  0  0  0  0
    8.3832  -11.5465    0.5379 C   0  0  0  1  0  0  0  0  0  0  0  0
    8.7871  -11.5634    1.5287 H   0  0  0  1  0  0  0  0  0  0  0  0
    7.8188   -9.2316    0.0906 O   0  0  0  1  0  0  0  0  0  0  0  0
    8.2740   -8.4787    0.4746 H   0  0  0  1  0  0  0  0  0  0  0  0
   10.3508   -5.9257   -2.7427 N   0  0  0  1  0  0  0  0  0  0  0  0
   11.9724   -6.3450   -4.3353 N   0  0  0  1  0  0  0  0  0  0  0  0
   12.0733   -5.3792   -4.4673 H   0  0  0  1  0  0  0  0  0  0  0  0
   12.5541   -6.9690   -4.8177 H   0  0  0  1  0  0  0  0  0  0  0  0
   10.3269  -13.0089    0.2181 C   0  0  0  1  0  0  0  0  0  0  0  0
   10.1926  -13.5453    1.1342 H   0  0  0  1  0  0  0  0  0  0  0  0
   10.9009  -12.1250    0.4027 H   0  0  0  1  0  0  0  0  0  0  0  0
    6.9642  -11.6978    0.5989 O   0  0  0  1  0  0  0  0  0  0  0  0
    6.5442  -10.8509    0.4313 H   0  0  0  1  0  0  0  0  0  0  0  0
   11.0353  -13.8493   -0.7279 O   0  0  0  1  0  0  0  0  0  0  0  0
   12.4827  -14.5469   -0.3993 P   0  0  0  1  0  0  0  0  0  0  0  0
   12.9283  -15.6645   -1.5662 O   0  0  0  1  0  0  0  0  0  0  0  0
   13.5748  -13.5545   -0.2859 O   0  0  0  1  0  0  0  0  0  0  0  0
   12.3564  -15.3272    1.0147 O   0  5  0  1  0  0  0  0  0  0  0  0
   13.4937  -15.6705   -2.9968 S   0  0  0  1  0  0  0  0  0  0  0  0
   14.3075  -16.8339   -3.0578 O   0  0  0  1  0  0  0  0  0  0  0  0
   14.9464  -16.7413   -3.7683 H   0  0  0  1  0  0  0  0  0  0  0  0
   12.2477  -15.8529   -3.5169 O   0  0  0  1  0  0  0  0  0  0  0  0
   14.1708  -14.4993   -2.9950 O   0  0  0  1  0  0  0  0  0  0  0  0
  1  2  1  0  0  0  0
  1  3  1  0  0  0  0
  1  5  1  0  0  0  0
  2  7  2  0  0  0  0
  2  8  1  0  0  0  0
  3  4  1  0  0  0  0
  3  9  1  0  0  0  0
  3 10  1  0  0  0  0
  5  6  1  0  0  0  0
  5 12  2  0  0  0  0
  7 12  1  0  0  0  0
  7 13  1  0  0  0  0
  8 14  2  0  0  0  0
  9 16  1  0  0  0  0
 10 11  1  0  0  0  0
 10 18  1  0  0  0  0
 10 20  1  0  0  0  0
 13 22  2  0  0  0  0
 13 23  1  0  0  0  0
 14 15  1  0  0  0  0
 14 22  1  0  0  0  0
 16 17  1  0  0  0  0
 16 18  1  0  0  0  0
 16 26  1  0  0  0  0
 18 19  1  0  0  0  0
 18 29  1  0  0  0  0
 20 21  1  0  0  0  0
 23 24  1  0  0  0  0
 23 25  1  0  0  0  0
 26 27  1  0  0  0  0
 26 28  1  0  0  0  0
 26 31  1  0  0  0  0
 29 30  1  0  0  0  0
 31 32  1  0  0  0  0
 32 33  1  0  0  0  0
 32 34  2  0  0  0  0
 32 35  1  0  0  0  0
 33 36  1  0  0  0  0
 36 37  1  0  0  0  0
 36 39  2  0  0  0  0
 36 40  2  0  0  0  0
 37 38  1  0  0  0  0
M  END
> <ConfClashScore>
0 

> <ConfOneFourInteractionScore>
-0.979955 

> <ConfScore>
-0.29034 

> <ConfScorePBest>
0.0106695 

> <ConfTolerance>
0.806148 

$$$$
ChEBI.****
  PyMOL2.5          3D                             0

 40 42  0  0  0  0  0  0  0  0999 V2000
    9.6361   -9.8641   -2.4345 N   0  0  0  1  0  0  0  0  0  0  0  0
    9.7332   -8.4967   -2.4143 C   0  0  0  1  0  0  0  0  0  0  0  0
    8.6910  -10.6703   -1.5870 C   0  0  0  1  0  0  0  0  0  0  0  0
    8.0703  -10.0104   -1.0177 H   0  0  0  1  0  0  0  0  0  0  0  0
   10.5485  -10.2850   -3.3527 C   0  0  0  1  0  0  0  0  0  0  0  0
   10.6884  -11.2897   -3.5822 H   0  0  0  1  0  0  0  0  0  0  0  0
   10.7322   -8.1781   -3.3440 C   0  0  0  1  0  0  0  0  0  0  0  0
    9.0411   -7.6392   -1.6628 N   0  0  0  1  0  0  0  0  0  0  0  0
    7.9063  -11.5029   -2.3913 O   0  0  0  1  0  0  0  0  0  0  0  0
    9.4756  -11.6049   -0.6527 C   0  0  0  1  0  0  0  0  0  0  0  0
   10.4083  -11.1676   -0.3635 H   0  0  0  1  0  0  0  0  0  0  0  0
   11.2348   -9.3326   -3.9236 N   0  0  0  1  0  0  0  0  0  0  0  0
   11.0140   -6.8220   -3.4802 C   0  0  0  1  0  0  0  0  0  0  0  0
    9.4054   -6.3851   -1.9004 C   0  0  0  1  0  0  0  0  0  0  0  0
    8.9026   -5.6590   -1.3512 H   0  0  0  1  0  0  0  0  0  0  0  0
    8.4355  -12.8403   -2.4242 C   0  0  0  1  0  0  0  0  0  0  0  0
    7.7122  -13.5340   -2.0494 H   0  0  0  1  0  0  0  0  0  0  0  0
    9.6915  -12.8339   -1.5182 C   0  0  0  1  0  0  0  0  0  0  0  0
   10.5854  -12.7436   -2.0993 H   0  0  0  1  0  0  0  0  0  0  0  0
    8.7161  -11.9234    0.5143 O   0  0  0  1  0  0  0  0  0  0  0  0
    8.2392  -11.1440    0.8088 H   0  0  0  1  0  0  0  0  0  0  0  0
   10.3350   -5.9275   -2.7538 N   0  0  0  1  0  0  0  0  0  0  0  0
   11.9692   -6.3393   -4.3354 N   0  0  0  1  0  0  0  0  0  0  0  0
   12.5439   -6.9608   -4.8292 H   0  0  0  1  0  0  0  0  0  0  0  0
   12.0778   -5.3725   -4.4534 H   0  0  0  1  0  0  0  0  0  0  0  0
    8.8079  -13.2145   -3.8211 C   0  0  0  1  0  0  0  0  0  0  0  0
    9.1267  -14.2355   -3.8521 H   0  0  0  1  0  0  0  0  0  0  0  0
    9.5983  -12.5828   -4.1691 H   0  0  0  1  0  0  0  0  0  0  0  0
    9.7577  -14.0181   -0.7224 O   0  0  0  1  0  0  0  0  0  0  0  0
    9.5808  -13.7980    0.1951 H   0  0  0  1  0  0  0  0  0  0  0  0
    7.6353  -13.0389   -4.6504 O   0  0  0  1  0  0  0  0  0  0  0  0
    7.5789  -13.4803   -6.2289 P   0  0  0  1  0  0  0  0  0  0  0  0
    6.0708  -13.3216   -6.8034 O   0  0  0  1  0  0  0  0  0  0  0  0
    8.5637  -12.7896   -7.0912 O   0  0  0  1  0  0  0  0  0  0  0  0
    7.9546  -15.0496   -6.3717 O   0  5  0  1  0  0  0  0  0  0  0  0
    5.1040  -14.5399   -7.1679 S   0  0  0  1  0  0  0  0  0  0  0  0
    4.8852  -14.4791   -8.5992 O   0  0  0  1  0  0  0  0  0  0  0  0
    4.8403  -15.3697   -8.9546 H   0  0  0  1  0  0  0  0  0  0  0  0
    5.7992  -15.7442   -6.7773 O   0  0  0  1  0  0  0  0  0  0  0  0
    3.9391  -14.2389   -6.3831 O   0  0  0  1  0  0  0  0  0  0  0  0
  1  2  1  0  0  0  0
  1  3  1  0  0  0  0
  1  5  1  0  0  0  0
  2  7  2  0  0  0  0
  2  8  1  0  0  0  0
  3  4  1  0  0  0  0
  3  9  1  0  0  0  0
  3 10  1  0  0  0  0
  5  6  1  0  0  0  0
  5 12  2  0  0  0  0
  7 12  1  0  0  0  0
  7 13  1  0  0  0  0
  8 14  2  0  0  0  0
  9 16  1  0  0  0  0
 10 11  1  0  0  0  0
 10 18  1  0  0  0  0
 10 20  1  0  0  0  0
 13 22  2  0  0  0  0
 13 23  1  0  0  0  0
 14 15  1  0  0  0  0
 14 22  1  0  0  0  0
 16 17  1  0  0  0  0
 16 18  1  0  0  0  0
 16 26  1  0  0  0  0
 18 19  1  0  0  0  0
 18 29  1  0  0  0  0
 20 21  1  0  0  0  0
 23 24  1  0  0  0  0
 23 25  1  0  0  0  0
 26 27  1  0  0  0  0
 26 28  1  0  0  0  0
 26 31  1  0  0  0  0
 29 30  1  0  0  0  0
 31 32  1  0  0  0  0
 32 33  1  0  0  0  0
 32 34  2  0  0  0  0
 32 35  1  0  0  0  0
 33 36  1  0  0  0  0
 36 37  1  0  0  0  0
 36 39  2  0  0  0  0
 36 40  2  0  0  0  0
 37 38  1  0  0  0  0
M  END
> <ConfClashScore>
0 

> <ConfOneFourInteractionScore>
-0.967901 

> <ConfScore>
-0.289459 

> <ConfScorePBest>
0.0105665 

> <ConfTolerance>
0.965115 

$$$$
ChEBI.****
  PyMOL2.5          3D                             0

 40 42  0  0  0  0  0  0  0  0999 V2000
    9.6218   -9.8574   -2.4335 N   0  0  0  1  0  0  0  0  0  0  0  0
    9.7296   -8.4908   -2.4096 C   0  0  0  1  0  0  0  0  0  0  0  0
    8.7132  -10.6932   -1.6245 C   0  0  0  1  0  0  0  0  0  0  0  0
    9.2399  -11.0737   -0.7744 H   0  0  0  1  0  0  0  0  0  0  0  0
   10.5262  -10.2825   -3.3577 C   0  0  0  1  0  0  0  0  0  0  0  0
   10.6570  -11.2875   -3.5910 H   0  0  0  1  0  0  0  0  0  0  0  0
   10.7262   -8.1771   -3.3435 C   0  0  0  1  0  0  0  0  0  0  0  0
    9.0480   -7.6304   -1.6519 N   0  0  0  1  0  0  0  0  0  0  0  0
    7.6026   -9.9483   -1.2150 O   0  0  0  1  0  0  0  0  0  0  0  0
    8.1562  -11.8497   -2.4697 C   0  0  0  1  0  0  0  0  0  0  0  0
    8.8675  -12.1703   -3.2018 H   0  0  0  1  0  0  0  0  0  0  0  0
   11.2169   -9.3337   -3.9292 N   0  0  0  1  0  0  0  0  0  0  0  0
   11.0178   -6.8228   -3.4770 C   0  0  0  1  0  0  0  0  0  0  0  0
    9.4208   -6.3784   -1.8876 C   0  0  0  1  0  0  0  0  0  0  0  0
    8.9265   -5.6501   -1.3336 H   0  0  0  1  0  0  0  0  0  0  0  0
    6.4714  -10.1921   -2.0698 C   0  0  0  1  0  0  0  0  0  0  0  0
    5.6560  -10.5877   -1.5011 H   0  0  0  1  0  0  0  0  0  0  0  0
    6.9383  -11.2238   -3.1262 C   0  0  0  1  0  0  0  0  0  0  0  0
    7.2006  -10.7425   -4.0451 H   0  0  0  1  0  0  0  0  0  0  0  0
    7.7862  -12.9574   -1.6473 O   0  0  0  1  0  0  0  0  0  0  0  0
    7.6908  -12.6639   -0.7383 H   0  0  0  1  0  0  0  0  0  0  0  0
   10.3496   -5.9254   -2.7443 N   0  0  0  1  0  0  0  0  0  0  0  0
   11.9723   -6.3449   -4.3356 N   0  0  0  1  0  0  0  0  0  0  0  0
   12.0845   -5.3786   -4.4549 H   0  0  0  1  0  0  0  0  0  0  0  0
   12.5429   -6.9692   -4.8307 H   0  0  0  1  0  0  0  0  0  0  0  0
    6.0569   -8.9595   -2.7194 C   0  0  0  1  0  0  0  0  0  0  0  0
    5.1356   -9.1375   -3.2337 H   0  0  0  1  0  0  0  0  0  0  0  0
    6.8101   -8.6749   -3.4241 H   0  0  0  1  0  0  0  0  0  0  0  0
    5.9269  -12.2019   -3.3720 O   0  0  0  1  0  0  0  0  0  0  0  0
    5.7070  -12.2076   -4.3065 H   0  0  0  1  0  0  0  0  0  0  0  0
    5.8648   -7.8855   -1.7992 O   0  0  0  1  0  0  0  0  0  0  0  0
    5.3701   -6.3525   -2.1072 P   0  0  0  1  0  0  0  0  0  0  0  0
    3.9572   -6.5768   -2.8706 O   0  0  0  1  0  0  0  0  0  0  0  0
    5.1097   -5.6696   -0.8202 O   0  0  0  1  0  0  0  0  0  0  0  0
    6.3765   -5.5919   -3.1235 O   0  5  0  1  0  0  0  0  0  0  0  0
    2.6879   -5.5684   -2.7803 S   0  0  0  1  0  0  0  0  0  0  0  0
    1.8151   -5.9645   -3.8671 O   0  0  0  1  0  0  0  0  0  0  0  0
    2.0735   -6.8325   -4.1856 H   0  0  0  1  0  0  0  0  0  0  0  0
    2.1171   -5.8064   -1.4722 O   0  0  0  1  0  0  0  0  0  0  0  0
    3.3132   -4.2836   -2.9432 O   0  0  0  1  0  0  0  0  0  0  0  0
  1  2  1  0  0  0  0
  1  3  1  0  0  0  0
  1  5  1  0  0  0  0
  2  7  2  0  0  0  0
  2  8  1  0  0  0  0
  3  4  1  0  0  0  0
  3  9  1  0  0  0  0
  3 10  1  0  0  0  0
  5  6  1  0  0  0  0
  5 12  2  0  0  0  0
  7 12  1  0  0  0  0
  7 13  1  0  0  0  0
  8 14  2  0  0  0  0
  9 16  1  0  0  0  0
 10 11  1  0  0  0  0
 10 18  1  0  0  0  0
 10 20  1  0  0  0  0
 13 22  2  0  0  0  0
 13 23  1  0  0  0  0
 14 15  1  0  0  0  0
 14 22  1  0  0  0  0
 16 17  1  0  0  0  0
 16 18  1  0  0  0  0
 16 26  1  0  0  0  0
 18 19  1  0  0  0  0
 18 29  1  0  0  0  0
 20 21  1  0  0  0  0
 23 24  1  0  0  0  0
 23 25  1  0  0  0  0
 26 27  1  0  0  0  0
 26 28  1  0  0  0  0
 26 31  1  0  0  0  0
 29 30  1  0  0  0  0
 31 32  1  0  0  0  0
 32 33  1  0  0  0  0
 32 34  2  0  0  0  0
 32 35  1  0  0  0  0
 33 36  1  0  0  0  0
 36 37  1  0  0  0  0
 36 39  2  0  0  0  0
 36 40  2  0  0  0  0
 37 38  1  0  0  0  0
M  END
> <ConfClashScore>
0 

> <ConfOneFourInteractionScore>
-0.976794 

> <ConfScore>
-0.289243 

> <ConfScorePBest>
0.0104635 

> <ConfTolerance>
1.04942 

$$$$
ChEBI.****
  PyMOL2.5          3D                             0

 40 42  0  0  0  0  0  0  0  0999 V2000
    9.6276   -9.8704   -2.4169 N   0  0  0  1  0  0  0  0  0  0  0  0
    9.7284   -8.5031   -2.4091 C   0  0  0  1  0  0  0  0  0  0  0  0
    8.7259  -10.6937   -1.6106 C   0  0  0  1  0  0  0  0  0  0  0  0
    7.7123  -10.4844   -1.8823 H   0  0  0  1  0  0  0  0  0  0  0  0
   10.5402  -10.3022   -3.3300 C   0  0  0  1  0  0  0  0  0  0  0  0
   10.6776  -11.3093   -3.5500 H   0  0  0  1  0  0  0  0  0  0  0  0
   10.7295   -8.1958   -3.3403 C   0  0  0  1  0  0  0  0  0  0  0  0
    9.0376   -7.6370   -1.6665 N   0  0  0  1  0  0  0  0  0  0  0  0
    9.0138  -12.0554   -1.7778 O   0  0  0  1  0  0  0  0  0  0  0  0
    8.9509  -10.4401   -0.1129 C   0  0  0  1  0  0  0  0  0  0  0  0
    9.9812  -10.2380    0.0935 H   0  0  0  1  0  0  0  0  0  0  0  0
   11.2298   -9.3570   -3.9086 N   0  0  0  1  0  0  0  0  0  0  0  0
   11.0151   -6.8418   -3.4885 C   0  0  0  1  0  0  0  0  0  0  0  0
    9.4055   -6.3861   -1.9150 C   0  0  0  1  0  0  0  0  0  0  0  0
    8.9040   -5.6536   -1.3732 H   0  0  0  1  0  0  0  0  0  0  0  0
    8.9296  -12.7829   -0.5316 C   0  0  0  1  0  0  0  0  0  0  0  0
    8.1955  -13.5584   -0.5984 H   0  0  0  1  0  0  0  0  0  0  0  0
    8.5169  -11.7402    0.5115 C   0  0  0  1  0  0  0  0  0  0  0  0
    9.0207  -11.9067    1.4407 H   0  0  0  1  0  0  0  0  0  0  0  0
    8.1494   -9.3529    0.3514 O   0  0  0  1  0  0  0  0  0  0  0  0
    7.4444   -9.6899    0.9091 H   0  0  0  1  0  0  0  0  0  0  0  0
   10.3376   -5.9388   -2.7713 N   0  0  0  1  0  0  0  0  0  0  0  0
   11.9731   -6.3040   -4.3412 N   0  0  0  1  0  0  0  0  0  0  0  0
   12.6187   -6.8921   -4.7859 H   0  0  0  1  0  0  0  0  0  0  0  0
   12.0025   -5.3370   -4.4974 H   0  0  0  1  0  0  0  0  0  0  0  0
   10.2380  -13.3715   -0.1861 C   0  0  0  1  0  0  0  0  0  0  0  0
   10.1237  -14.0085    0.6660 H   0  0  0  1  0  0  0  0  0  0  0  0
   10.9276  -12.5866    0.0445 H   0  0  0  1  0  0  0  0  0  0  0  0
    7.1047  -11.7599    0.7246 O   0  0  0  1  0  0  0  0  0  0  0  0
    6.7010  -12.4032    0.1375 H   0  0  0  1  0  0  0  0  0  0  0  0
   10.7517  -14.1466   -1.2948 O   0  0  0  1  0  0  0  0  0  0  0  0
   12.1516  -14.9893   -1.1543 P   0  0  0  1  0  0  0  0  0  0  0  0
   11.9948  -16.1015    0.0153 O   0  0  0  1  0  0  0  0  0  0  0  0
   12.5201  -15.6360   -2.4335 O   0  0  0  1  0  0  0  0  0  0  0  0
   13.0753  -13.7444   -0.6838 O   0  5  0  1  0  0  0  0  0  0  0  0
   12.7861  -16.0772    1.4092 S   0  0  0  1  0  0  0  0  0  0  0  0
   12.7759  -14.7038    1.8722 O   0  0  0  1  0  0  0  0  0  0  0  0
   12.4344  -14.1344    1.1789 H   0  0  0  1  0  0  0  0  0  0  0  0
   11.9619  -16.9523    2.2058 O   0  0  0  1  0  0  0  0  0  0  0  0
   14.1095  -16.5627    1.1504 O   0  0  0  1  0  0  0  0  0  0  0  0
  1  2  1  0  0  0  0
  1  3  1  0  0  0  0
  1  5  1  0  0  0  0
  2  7  2  0  0  0  0
  2  8  1  0  0  0  0
  3  4  1  0  0  0  0
  3  9  1  0  0  0  0
  3 10  1  0  0  0  0
  5  6  1  0  0  0  0
  5 12  2  0  0  0  0
  7 12  1  0  0  0  0
  7 13  1  0  0  0  0
  8 14  2  0  0  0  0
  9 16  1  0  0  0  0
 10 11  1  0  0  0  0
 10 18  1  0  0  0  0
 10 20  1  0  0  0  0
 13 22  2  0  0  0  0
 13 23  1  0  0  0  0
 14 15  1  0  0  0  0
 14 22  1  0  0  0  0
 16 17  1  0  0  0  0
 16 18  1  0  0  0  0
 16 26  1  0  0  0  0
 18 19  1  0  0  0  0
 18 29  1  0  0  0  0
 20 21  1  0  0  0  0
 23 24  1  0  0  0  0
 23 25  1  0  0  0  0
 26 27  1  0  0  0  0
 26 28  1  0  0  0  0
 26 31  1  0  0  0  0
 29 30  1  0  0  0  0
 31 32  1  0  0  0  0
 32 33  1  0  0  0  0
 32 34  2  0  0  0  0
 32 35  1  0  0  0  0
 33 36  1  0  0  0  0
 36 37  1  0  0  0  0
 36 39  2  0  0  0  0
 36 40  2  0  0  0  0
 37 38  1  0  0  0  0
M  END
> <ConfClashScore>
0 

> <ConfOneFourInteractionScore>
-0.982003 

> <ConfScore>
-0.288751 

> <ConfScorePBest>
0.0103605 

> <ConfTolerance>
0.888072 

$$$$
ChEBI.****
  PyMOL2.5          3D                             0

 40 42  0  0  0  0  0  0  0  0999 V2000
    9.6237   -9.8652   -2.4425 N   0  0  0  1  0  0  0  0  0  0  0  0
    9.7303   -8.4986   -2.4116 C   0  0  0  1  0  0  0  0  0  0  0  0
    8.6768  -10.6543   -1.6331 C   0  0  0  1  0  0  0  0  0  0  0  0
    8.8326  -10.4444   -0.5955 H   0  0  0  1  0  0  0  0  0  0  0  0
   10.5491  -10.2868   -3.3474 C   0  0  0  1  0  0  0  0  0  0  0  0
   10.6857  -11.2909   -3.5809 H   0  0  0  1  0  0  0  0  0  0  0  0
   10.7477   -8.1813   -3.3215 C   0  0  0  1  0  0  0  0  0  0  0  0
    9.0313   -7.6410   -1.6667 N   0  0  0  1  0  0  0  0  0  0  0  0
    7.3142  -10.3559   -2.0120 O   0  0  0  1  0  0  0  0  0  0  0  0
    8.8492  -12.1506   -1.9108 C   0  0  0  1  0  0  0  0  0  0  0  0
    9.2987  -12.3140   -2.8679 H   0  0  0  1  0  0  0  0  0  0  0  0
   11.2521   -9.3358   -3.8998 N   0  0  0  1  0  0  0  0  0  0  0  0
   11.0416   -6.8265   -3.4438 C   0  0  0  1  0  0  0  0  0  0  0  0
    9.4087   -6.3881   -1.8896 C   0  0  0  1  0  0  0  0  0  0  0  0
    8.9016   -5.6619   -1.3445 H   0  0  0  1  0  0  0  0  0  0  0  0
    6.6335  -11.4956   -2.4623 C   0  0  0  1  0  0  0  0  0  0  0  0
    5.6281  -11.5059   -2.0964 H   0  0  0  1  0  0  0  0  0  0  0  0
    7.4355  -12.6696   -1.8823 C   0  0  0  1  0  0  0  0  0  0  0  0
    7.3334  -13.5442   -2.4901 H   0  0  0  1  0  0  0  0  0  0  0  0
    9.6433  -12.7713   -0.8988 O   0  0  0  1  0  0  0  0  0  0  0  0
   10.0777  -13.5461   -1.2627 H   0  0  0  1  0  0  0  0  0  0  0  0
   10.3565   -5.9318   -2.7235 N   0  0  0  1  0  0  0  0  0  0  0  0
   11.9649   -6.3357   -4.3523 N   0  0  0  1  0  0  0  0  0  0  0  0
   12.5079   -6.9557   -4.8826 H   0  0  0  1  0  0  0  0  0  0  0  0
   12.0752   -5.3684   -4.4648 H   0  0  0  1  0  0  0  0  0  0  0  0
    6.6213  -11.5493   -3.9547 C   0  0  0  1  0  0  0  0  0  0  0  0
    6.1393  -12.4464   -4.2831 H   0  0  0  1  0  0  0  0  0  0  0  0
    7.6237  -11.5251   -4.3283 H   0  0  0  1  0  0  0  0  0  0  0  0
    7.0224  -12.9658   -0.5470 O   0  0  0  1  0  0  0  0  0  0  0  0
    6.2602  -12.4279   -0.3206 H   0  0  0  1  0  0  0  0  0  0  0  0
    5.8902  -10.3946   -4.4299 O   0  0  0  1  0  0  0  0  0  0  0  0
    5.7704  -10.0773   -6.0345 P   0  0  0  1  0  0  0  0  0  0  0  0
    5.0045  -11.3656   -6.7845 O   0  0  0  1  0  0  0  0  0  0  0  0
    4.9760   -8.8569   -6.2989 O   0  0  0  1  0  0  0  0  0  0  0  0
    7.2956  -10.0053   -6.5759 O   0  5  0  1  0  0  0  0  0  0  0  0
    3.5674  -11.9489   -6.9160 S   0  0  0  1  0  0  0  0  0  0  0  0
    2.8658  -11.6748   -5.6907 O   0  0  0  1  0  0  0  0  0  0  0  0
    3.3907  -11.9779   -4.9462 H   0  0  0  1  0  0  0  0  0  0  0  0
    3.0671  -11.2210   -8.0244 O   0  0  0  1  0  0  0  0  0  0  0  0
    3.6768  -13.3421   -7.1350 O   0  0  0  1  0  0  0  0  0  0  0  0
  1  2  1  0  0  0  0
  1  3  1  0  0  0  0
  1  5  1  0  0  0  0
  2  7  2  0  0  0  0
  2  8  1  0  0  0  0
  3  4  1  0  0  0  0
  3  9  1  0  0  0  0
  3 10  1  0  0  0  0
  5  6  1  0  0  0  0
  5 12  2  0  0  0  0
  7 12  1  0  0  0  0
  7 13  1  0  0  0  0
  8 14  2  0  0  0  0
  9 16  1  0  0  0  0
 10 11  1  0  0  0  0
 10 18  1  0  0  0  0
 10 20  1  0  0  0  0
 13 22  2  0  0  0  0
 13 23  1  0  0  0  0
 14 15  1  0  0  0  0
 14 22  1  0  0  0  0
 16 17  1  0  0  0  0
 16 18  1  0  0  0  0
 16 26  1  0  0  0  0
 18 19  1  0  0  0  0
 18 29  1  0  0  0  0
 20 21  1  0  0  0  0
 23 24  1  0  0  0  0
 23 25  1  0  0  0  0
 26 27  1  0  0  0  0
 26 28  1  0  0  0  0
 26 31  1  0  0  0  0
 29 30  1  0  0  0  0
 31 32  1  0  0  0  0
 32 33  1  0  0  0  0
 32 34  2  0  0  0  0
 32 35  1  0  0  0  0
 33 36  1  0  0  0  0
 36 37  1  0  0  0  0
 36 39  2  0  0  0  0
 36 40  2  0  0  0  0
 37 38  1  0  0  0  0
M  END
> <ConfClashScore>
0 

> <ConfOneFourInteractionScore>
-0.97752 

> <ConfScore>
-0.288023 

> <ConfScorePBest>
0.0102575 

> <ConfTolerance>
0.999003 

$$$$
ChEBI.****
  PyMOL2.5          3D                             0

 40 42  0  0  0  0  0  0  0  0999 V2000
    9.6299   -9.8506   -2.4391 N   0  0  0  1  0  0  0  0  0  0  0  0
    9.7298   -8.4835   -2.4093 C   0  0  0  1  0  0  0  0  0  0  0  0
    8.7160  -10.7035   -1.6266 C   0  0  0  1  0  0  0  0  0  0  0  0
    8.7419  -11.7074   -1.9959 H   0  0  0  1  0  0  0  0  0  0  0  0
   10.5379  -10.2666   -3.3638 C   0  0  0  1  0  0  0  0  0  0  0  0
   10.6749  -11.2698   -3.6011 H   0  0  0  1  0  0  0  0  0  0  0  0
   10.7257   -8.1601   -3.3406 C   0  0  0  1  0  0  0  0  0  0  0  0
    9.0423   -7.6302   -1.6489 N   0  0  0  1  0  0  0  0  0  0  0  0
    9.0732  -10.6635   -0.2717 O   0  0  0  1  0  0  0  0  0  0  0  0
    7.2842  -10.1493   -1.6573 C   0  0  0  1  0  0  0  0  0  0  0  0
    7.2852   -9.0801   -1.6988 H   0  0  0  1  0  0  0  0  0  0  0  0
   11.2239   -9.3114   -3.9304 N   0  0  0  1  0  0  0  0  0  0  0  0
   11.0097   -6.8036   -3.4680 C   0  0  0  1  0  0  0  0  0  0  0  0
    9.4081   -6.3751   -1.8789 C   0  0  0  1  0  0  0  0  0  0  0  0
    8.9089   -5.6521   -1.3225 H   0  0  0  1  0  0  0  0  0  0  0  0
    7.9151  -10.6069    0.5915 C   0  0  0  1  0  0  0  0  0  0  0  0
    7.8979  -11.4481    1.2525 H   0  0  0  1  0  0  0  0  0  0  0  0
    6.7110  -10.6416   -0.3544 C   0  0  0  1  0  0  0  0  0  0  0  0
    5.9326   -9.9941   -0.0085 H   0  0  0  1  0  0  0  0  0  0  0  0
    6.5547  -10.6690   -2.7699 O   0  0  0  1  0  0  0  0  0  0  0  0
    6.1312  -11.4931   -2.5186 H   0  0  0  1  0  0  0  0  0  0  0  0
   10.3353   -5.9132   -2.7325 N   0  0  0  1  0  0  0  0  0  0  0  0
   11.9737   -6.3706   -4.3398 N   0  0  0  1  0  0  0  0  0  0  0  0
   12.4615   -7.0172   -4.8915 H   0  0  0  1  0  0  0  0  0  0  0  0
   12.1755   -5.4143   -4.4116 H   0  0  0  1  0  0  0  0  0  0  0  0
    7.9180   -9.3452    1.3903 C   0  0  0  1  0  0  0  0  0  0  0  0
    7.9592   -8.4996    0.7359 H   0  0  0  1  0  0  0  0  0  0  0  0
    8.7634   -9.3310    2.0460 H   0  0  0  1  0  0  0  0  0  0  0  0
    6.2024  -11.9697   -0.4877 O   0  0  0  1  0  0  0  0  0  0  0  0
    5.2890  -11.9351   -0.7811 H   0  0  0  1  0  0  0  0  0  0  0  0
    6.6948   -9.3114    2.1626 O   0  0  0  1  0  0  0  0  0  0  0  0
    6.4382   -8.1389    3.2803 P   0  0  0  1  0  0  0  0  0  0  0  0
    7.5698   -8.2515    4.4363 O   0  0  0  1  0  0  0  0  0  0  0  0
    6.4556   -6.7606    2.7416 O   0  0  0  1  0  0  0  0  0  0  0  0
    5.0880   -8.4187    4.1305 O   0  5  0  1  0  0  0  0  0  0  0  0
    7.3315   -7.9259    5.9573 S   0  0  0  1  0  0  0  0  0  0  0  0
    8.5398   -7.2104    6.2574 O   0  0  0  1  0  0  0  0  0  0  0  0
    8.4463   -6.2948    5.9844 H   0  0  0  1  0  0  0  0  0  0  0  0
    6.2157   -7.0902    6.0316 O   0  0  0  1  0  0  0  0  0  0  0  0
    7.2720   -9.1121    6.7120 O   0  0  0  1  0  0  0  0  0  0  0  0
  1  2  1  0  0  0  0
  1  3  1  0  0  0  0
  1  5  1  0  0  0  0
  2  7  2  0  0  0  0
  2  8  1  0  0  0  0
  3  4  1  0  0  0  0
  3  9  1  0  0  0  0
  3 10  1  0  0  0  0
  5  6  1  0  0  0  0
  5 12  2  0  0  0  0
  7 12  1  0  0  0  0
  7 13  1  0  0  0  0
  8 14  2  0  0  0  0
  9 16  1  0  0  0  0
 10 11  1  0  0  0  0
 10 18  1  0  0  0  0
 10 20  1  0  0  0  0
 13 22  2  0  0  0  0
 13 23  1  0  0  0  0
 14 15  1  0  0  0  0
 14 22  1  0  0  0  0
 16 17  1  0  0  0  0
 16 18  1  0  0  0  0
 16 26  1  0  0  0  0
 18 19  1  0  0  0  0
 18 29  1  0  0  0  0
 20 21  1  0  0  0  0
 23 24  1  0  0  0  0
 23 25  1  0  0  0  0
 26 27  1  0  0  0  0
 26 28  1  0  0  0  0
 26 31  1  0  0  0  0
 29 30  1  0  0  0  0
 31 32  1  0  0  0  0
 32 33  1  0  0  0  0
 32 34  2  0  0  0  0
 32 35  1  0  0  0  0
 33 36  1  0  0  0  0
 36 37  1  0  0  0  0
 36 39  2  0  0  0  0
 36 40  2  0  0  0  0
 37 38  1  0  0  0  0
M  END
> <ConfClashScore>
0 

> <ConfOneFourInteractionScore>
-0.97752 

> <ConfScore>
-0.287098 

> <ConfScorePBest>
0.0101545 

> <ConfTolerance>
1.09322 

$$$$
ChEBI.****
  PyMOL2.5          3D                             0

 40 42  0  0  0  0  0  0  0  0999 V2000
    9.6183   -9.8662   -2.4178 N   0  0  0  1  0  0  0  0  0  0  0  0
    9.7273   -8.4995   -2.4081 C   0  0  0  1  0  0  0  0  0  0  0  0
    8.7085  -10.6903   -1.6050 C   0  0  0  1  0  0  0  0  0  0  0  0
    7.7001  -10.5315   -1.9257 H   0  0  0  1  0  0  0  0  0  0  0  0
   10.5254  -10.3019   -3.3343 C   0  0  0  1  0  0  0  0  0  0  0  0
   10.6561  -11.3095   -3.5563 H   0  0  0  1  0  0  0  0  0  0  0  0
   10.7274   -8.1967   -3.3419 C   0  0  0  1  0  0  0  0  0  0  0  0
    9.0440   -7.6304   -1.6620 N   0  0  0  1  0  0  0  0  0  0  0  0
    9.0469  -12.0427   -1.7164 O   0  0  0  1  0  0  0  0  0  0  0  0
    8.8570  -10.3404   -0.1158 C   0  0  0  1  0  0  0  0  0  0  0  0
    9.1027   -9.3072    0.0153 H   0  0  0  1  0  0  0  0  0  0  0  0
   11.2190   -9.3600   -3.9136 N   0  0  0  1  0  0  0  0  0  0  0  0
   11.0208   -6.8442   -3.4889 C   0  0  0  1  0  0  0  0  0  0  0  0
    9.4188   -6.3814   -1.9098 C   0  0  0  1  0  0  0  0  0  0  0  0
    8.9233   -5.6467   -1.3653 H   0  0  0  1  0  0  0  0  0  0  0  0
    9.8430  -12.4715   -0.5974 C   0  0  0  1  0  0  0  0  0  0  0  0
    9.3487  -13.2623   -0.0729 H   0  0  0  1  0  0  0  0  0  0  0  0
   10.0024  -11.2359    0.3225 C   0  0  0  1  0  0  0  0  0  0  0  0
   10.9468  -10.7580    0.1656 H   0  0  0  1  0  0  0  0  0  0  0  0
    7.6619  -10.6416    0.6061 O   0  0  0  1  0  0  0  0  0  0  0  0
    6.9486  -10.0803    0.2936 H   0  0  0  1  0  0  0  0  0  0  0  0
   10.3509   -5.9384   -2.7682 N   0  0  0  1  0  0  0  0  0  0  0  0
   11.9793   -6.3109   -4.3437 N   0  0  0  1  0  0  0  0  0  0  0  0
   12.1447   -5.3450   -4.3527 H   0  0  0  1  0  0  0  0  0  0  0  0
   12.4893   -6.9010   -4.9371 H   0  0  0  1  0  0  0  0  0  0  0  0
   11.1804  -12.9433   -1.0653 C   0  0  0  1  0  0  0  0  0  0  0  0
   11.7224  -13.3709   -0.2479 H   0  0  0  1  0  0  0  0  0  0  0  0
   11.7346  -12.1230   -1.4713 H   0  0  0  1  0  0  0  0  0  0  0  0
    9.8742  -11.5988    1.6980 O   0  0  0  1  0  0  0  0  0  0  0  0
    9.3186  -12.3780    1.7734 H   0  0  0  1  0  0  0  0  0  0  0  0
   10.9621  -13.9362   -2.0803 O   0  0  0  1  0  0  0  0  0  0  0  0
   12.1403  -14.7072   -2.9212 P   0  0  0  1  0  0  0  0  0  0  0  0
   13.1471  -13.4924   -3.4864 O   0  0  0  1  0  0  0  0  0  0  0  0
   12.9340  -15.6035   -2.0511 O   0  0  0  1  0  0  0  0  0  0  0  0
   11.5116  -15.3829   -4.2525 O   0  5  0  1  0  0  0  0  0  0  0  0
   13.0601  -12.2115   -4.4576 S   0  0  0  1  0  0  0  0  0  0  0  0
   12.9588  -11.1341   -3.4976 O   0  0  0  1  0  0  0  0  0  0  0  0
   13.4692  -10.3815   -3.8055 H   0  0  0  1  0  0  0  0  0  0  0  0
   14.2839  -12.1938   -5.2081 O   0  0  0  1  0  0  0  0  0  0  0  0
   11.8825  -12.3959   -5.2555 O   0  0  0  1  0  0  0  0  0  0  0  0
  1  2  1  0  0  0  0
  1  3  1  0  0  0  0
  1  5  1  0  0  0  0
  2  7  2  0  0  0  0
  2  8  1  0  0  0  0
  3  4  1  0  0  0  0
  3  9  1  0  0  0  0
  3 10  1  0  0  0  0
  5  6  1  0  0  0  0
  5 12  2  0  0  0  0
  7 12  1  0  0  0  0
  7 13  1  0  0  0  0
  8 14  2  0  0  0  0
  9 16  1  0  0  0  0
 10 11  1  0  0  0  0
 10 18  1  0  0  0  0
 10 20  1  0  0  0  0
 13 22  2  0  0  0  0
 13 23  1  0  0  0  0
 14 15  1  0  0  0  0
 14 22  1  0  0  0  0
 16 17  1  0  0  0  0
 16 18  1  0  0  0  0
 16 26  1  0  0  0  0
 18 19  1  0  0  0  0
 18 29  1  0  0  0  0
 20 21  1  0  0  0  0
 23 24  1  0  0  0  0
 23 25  1  0  0  0  0
 26 27  1  0  0  0  0
 26 28  1  0  0  0  0
 26 31  1  0  0  0  0
 29 30  1  0  0  0  0
 31 32  1  0  0  0  0
 32 33  1  0  0  0  0
 32 34  2  0  0  0  0
 32 35  1  0  0  0  0
 33 36  1  0  0  0  0
 36 37  1  0  0  0  0
 36 39  2  0  0  0  0
 36 40  2  0  0  0  0
 37 38  1  0  0  0  0
M  END
> <ConfClashScore>
0 

> <ConfOneFourInteractionScore>
-0.982003 

> <ConfScore>
-0.285738 

> <ConfScorePBest>
0.0100515 

> <ConfTolerance>
1.02981 

$$$$
ChEBI.****
  PyMOL2.5          3D                             0

 40 42  0  0  0  0  0  0  0  0999 V2000
    9.6187   -9.8661   -2.4176 N   0  0  0  1  0  0  0  0  0  0  0  0
    9.7274   -8.4994   -2.4082 C   0  0  0  1  0  0  0  0  0  0  0  0
    8.7074  -10.6915   -1.6035 C   0  0  0  1  0  0  0  0  0  0  0  0
    8.6128  -10.2628   -0.6277 H   0  0  0  1  0  0  0  0  0  0  0  0
   10.5261  -10.3019   -3.3338 C   0  0  0  1  0  0  0  0  0  0  0  0
   10.6571  -11.3095   -3.5556 H   0  0  0  1  0  0  0  0  0  0  0  0
   10.7276   -8.1966   -3.3419 C   0  0  0  1  0  0  0  0  0  0  0  0
    9.0438   -7.6303   -1.6625 N   0  0  0  1  0  0  0  0  0  0  0  0
    7.4016  -10.8075   -2.2462 O   0  0  0  1  0  0  0  0  0  0  0  0
    9.2084  -12.1150   -1.5165 C   0  0  0  1  0  0  0  0  0  0  0  0
   10.2778  -12.1456   -1.5325 H   0  0  0  1  0  0  0  0  0  0  0  0
   11.2196   -9.3599   -3.9131 N   0  0  0  1  0  0  0  0  0  0  0  0
   11.0207   -6.8441   -3.4891 C   0  0  0  1  0  0  0  0  0  0  0  0
    9.4183   -6.3812   -1.9105 C   0  0  0  1  0  0  0  0  0  0  0  0
    8.9225   -5.6466   -1.3663 H   0  0  0  1  0  0  0  0  0  0  0  0
    7.3241  -11.9870   -2.9961 C   0  0  0  1  0  0  0  0  0  0  0  0
    6.4843  -12.5670   -2.6748 H   0  0  0  1  0  0  0  0  0  0  0  0
    8.6220  -12.7784   -2.7698 C   0  0  0  1  0  0  0  0  0  0  0  0
    9.2844  -12.6793   -3.6042 H   0  0  0  1  0  0  0  0  0  0  0  0
    8.7309  -12.7524   -0.3308 O   0  0  0  1  0  0  0  0  0  0  0  0
    7.8810  -13.1625   -0.5075 H   0  0  0  1  0  0  0  0  0  0  0  0
   10.3505   -5.9382   -2.7688 N   0  0  0  1  0  0  0  0  0  0  0  0
   11.9793   -6.3108   -4.3438 N   0  0  0  1  0  0  0  0  0  0  0  0
   12.1490   -5.3456   -4.3485 H   0  0  0  1  0  0  0  0  0  0  0  0
   12.4852   -6.9001   -4.9415 H   0  0  0  1  0  0  0  0  0  0  0  0
    7.1790  -11.6615   -4.4280 C   0  0  0  1  0  0  0  0  0  0  0  0
    6.2658  -11.1240   -4.5764 H   0  0  0  1  0  0  0  0  0  0  0  0
    7.1557  -12.5687   -4.9949 H   0  0  0  1  0  0  0  0  0  0  0  0
    8.3482  -14.1612   -2.5400 O   0  0  0  1  0  0  0  0  0  0  0  0
    8.6262  -14.6740   -3.3025 H   0  0  0  1  0  0  0  0  0  0  0  0
    8.2888  -10.8481   -4.8761 O   0  0  0  1  0  0  0  0  0  0  0  0
    8.2284  -10.0622   -6.3142 P   0  0  0  1  0  0  0  0  0  0  0  0
    6.9497   -8.9799   -6.2665 O   0  0  0  1  0  0  0  0  0  0  0  0
    9.4781   -9.4139   -6.7707 O   0  0  0  1  0  0  0  0  0  0  0  0
    7.7040  -11.1174   -7.4260 O   0  5  0  1  0  0  0  0  0  0  0  0
    5.5948   -8.7492   -5.4205 S   0  0  0  1  0  0  0  0  0  0  0  0
    5.9969   -8.6197   -4.0355 O   0  0  0  1  0  0  0  0  0  0  0  0
    5.2552   -8.3030   -3.5147 H   0  0  0  1  0  0  0  0  0  0  0  0
    4.9805   -7.5912   -5.9533 O   0  0  0  1  0  0  0  0  0  0  0  0
    4.9836   -9.9909   -5.7223 O   0  0  0  1  0  0  0  0  0  0  0  0
  1  2  1  0  0  0  0
  1  3  1  0  0  0  0
  1  5  1  0  0  0  0
  2  7  2  0  0  0  0
  2  8  1  0  0  0  0
  3  4  1  0  0  0  0
  3  9  1  0  0  0  0
  3 10  1  0  0  0  0
  5  6  1  0  0  0  0
  5 12  2  0  0  0  0
  7 12  1  0  0  0  0
  7 13  1  0  0  0  0
  8 14  2  0  0  0  0
  9 16  1  0  0  0  0
 10 11  1  0  0  0  0
 10 18  1  0  0  0  0
 10 20  1  0  0  0  0
 13 22  2  0  0  0  0
 13 23  1  0  0  0  0
 14 15  1  0  0  0  0
 14 22  1  0  0  0  0
 16 17  1  0  0  0  0
 16 18  1  0  0  0  0
 16 26  1  0  0  0  0
 18 19  1  0  0  0  0
 18 29  1  0  0  0  0
 20 21  1  0  0  0  0
 23 24  1  0  0  0  0
 23 25  1  0  0  0  0
 26 27  1  0  0  0  0
 26 28  1  0  0  0  0
 26 31  1  0  0  0  0
 29 30  1  0  0  0  0
 31 32  1  0  0  0  0
 32 33  1  0  0  0  0
 32 34  2  0  0  0  0
 32 35  1  0  0  0  0
 33 36  1  0  0  0  0
 36 37  1  0  0  0  0
 36 39  2  0  0  0  0
 36 40  2  0  0  0  0
 37 38  1  0  0  0  0
M  END
> <ConfClashScore>
0 

> <ConfOneFourInteractionScore>
-0.983876 

> <ConfScore>
-0.285697 

> <ConfScorePBest>
0.0099485 

> <ConfTolerance>
0.988989 

$$$$
ChEBI.****
  PyMOL2.5          3D                             0

 40 42  0  0  0  0  0  0  0  0999 V2000
    9.6254   -9.8577   -2.4298 N   0  0  0  1  0  0  0  0  0  0  0  0
    9.7296   -8.4908   -2.4097 C   0  0  0  1  0  0  0  0  0  0  0  0
    8.7165  -10.6940   -1.6198 C   0  0  0  1  0  0  0  0  0  0  0  0
    8.6300  -10.2792   -0.6373 H   0  0  0  1  0  0  0  0  0  0  0  0
   10.5329  -10.2832   -3.3507 C   0  0  0  1  0  0  0  0  0  0  0  0
   10.6669  -11.2885   -3.5808 H   0  0  0  1  0  0  0  0  0  0  0  0
   10.7275   -8.1772   -3.3422 C   0  0  0  1  0  0  0  0  0  0  0  0
    9.0442   -7.6299   -1.6560 N   0  0  0  1  0  0  0  0  0  0  0  0
    7.4589  -10.7737   -2.2265 O   0  0  0  1  0  0  0  0  0  0  0  0
    9.2409  -12.1368   -1.5465 C   0  0  0  1  0  0  0  0  0  0  0  0
   10.3104  -12.1605   -1.5703 H   0  0  0  1  0  0  0  0  0  0  0  0
   11.2225   -9.3343   -3.9234 N   0  0  0  1  0  0  0  0  0  0  0  0
   11.0160   -6.8226   -3.4790 C   0  0  0  1  0  0  0  0  0  0  0  0
    9.4142   -6.3777   -1.8945 C   0  0  0  1  0  0  0  0  0  0  0  0
    8.9168   -5.6491   -1.3437 H   0  0  0  1  0  0  0  0  0  0  0  0
    7.3211  -11.9948   -2.9748 C   0  0  0  1  0  0  0  0  0  0  0  0
    6.5036  -12.5713   -2.5951 H   0  0  0  1  0  0  0  0  0  0  0  0
    8.6510  -12.7678   -2.7954 C   0  0  0  1  0  0  0  0  0  0  0  0
    9.2947  -12.6280   -3.6386 H   0  0  0  1  0  0  0  0  0  0  0  0
    8.7755  -12.7950   -0.3674 O   0  0  0  1  0  0  0  0  0  0  0  0
    8.5952  -13.7170   -0.5651 H   0  0  0  1  0  0  0  0  0  0  0  0
   10.3438   -5.9247   -2.7505 N   0  0  0  1  0  0  0  0  0  0  0  0
   11.9712   -6.3447   -4.3369 N   0  0  0  1  0  0  0  0  0  0  0  0
   12.1297   -5.3801   -4.4056 H   0  0  0  1  0  0  0  0  0  0  0  0
   12.4960   -6.9675   -4.8820 H   0  0  0  1  0  0  0  0  0  0  0  0
    7.0898  -11.6926   -4.4188 C   0  0  0  1  0  0  0  0  0  0  0  0
    7.9544  -11.2191   -4.8350 H   0  0  0  1  0  0  0  0  0  0  0  0
    6.2431  -11.0470   -4.5249 H   0  0  0  1  0  0  0  0  0  0  0  0
    8.4128  -14.1643   -2.6032 O   0  0  0  1  0  0  0  0  0  0  0  0
    8.9094  -14.6665   -3.2535 H   0  0  0  1  0  0  0  0  0  0  0  0
    6.8409  -12.9470   -5.0958 O   0  0  0  1  0  0  0  0  0  0  0  0
    6.8603  -13.0370   -6.7332 P   0  0  0  1  0  0  0  0  0  0  0  0
    8.3840  -12.4383   -7.0924 O   0  0  0  1  0  0  0  0  0  0  0  0
    6.4953  -14.3596   -7.2880 O   0  0  0  1  0  0  0  0  0  0  0  0
    5.8871  -11.8674   -7.2893 O   0  5  0  1  0  0  0  0  0  0  0  0
    9.0505  -11.0973   -7.7804 S   0  0  0  1  0  0  0  0  0  0  0  0
    8.1207  -10.7045   -8.7961 O   0  0  0  1  0  0  0  0  0  0  0  0
    7.4566  -10.1248   -8.4159 H   0  0  0  1  0  0  0  0  0  0  0  0
    9.1008  -10.2125   -6.6604 O   0  0  0  1  0  0  0  0  0  0  0  0
   10.3179  -11.5315   -8.2638 O   0  0  0  1  0  0  0  0  0  0  0  0
  1  2  1  0  0  0  0
  1  3  1  0  0  0  0
  1  5  1  0  0  0  0
  2  7  2  0  0  0  0
  2  8  1  0  0  0  0
  3  4  1  0  0  0  0
  3  9  1  0  0  0  0
  3 10  1  0  0  0  0
  5  6  1  0  0  0  0
  5 12  2  0  0  0  0
  7 12  1  0  0  0  0
  7 13  1  0  0  0  0
  8 14  2  0  0  0  0
  9 16  1  0  0  0  0
 10 11  1  0  0  0  0
 10 18  1  0  0  0  0
 10 20  1  0  0  0  0
 13 22  2  0  0  0  0
 13 23  1  0  0  0  0
 14 15  1  0  0  0  0
 14 22  1  0  0  0  0
 16 17  1  0  0  0  0
 16 18  1  0  0  0  0
 16 26  1  0  0  0  0
 18 19  1  0  0  0  0
 18 29  1  0  0  0  0
 20 21  1  0  0  0  0
 23 24  1  0  0  0  0
 23 25  1  0  0  0  0
 26 27  1  0  0  0  0
 26 28  1  0  0  0  0
 26 31  1  0  0  0  0
 29 30  1  0  0  0  0
 31 32  1  0  0  0  0
 32 33  1  0  0  0  0
 32 34  2  0  0  0  0
 32 35  1  0  0  0  0
 33 36  1  0  0  0  0
 36 37  1  0  0  0  0
 36 39  2  0  0  0  0
 36 40  2  0  0  0  0
 37 38  1  0  0  0  0
M  END
> <ConfClashScore>
0 

> <ConfOneFourInteractionScore>
-0.977686 

> <ConfScore>
-0.283849 

> <ConfScorePBest>
0.0098455 

> <ConfTolerance>
1.02422 

$$$$
ChEBI.****
  PyMOL2.5          3D                             0

 40 42  0  0  0  0  0  0  0  0999 V2000
    9.6334   -9.8569   -2.4445 N   0  0  0  1  0  0  0  0  0  0  0  0
    9.7315   -8.4897   -2.4115 C   0  0  0  1  0  0  0  0  0  0  0  0
    8.7087  -10.6556   -1.6165 C   0  0  0  1  0  0  0  0  0  0  0  0
    7.6998  -10.4477   -1.9060 H   0  0  0  1  0  0  0  0  0  0  0  0
   10.5418  -10.2695   -3.3705 C   0  0  0  1  0  0  0  0  0  0  0  0
   10.6800  -11.2720   -3.6102 H   0  0  0  1  0  0  0  0  0  0  0  0
   10.7267   -8.1628   -3.3423 C   0  0  0  1  0  0  0  0  0  0  0  0
    9.0430   -7.6392   -1.6490 N   0  0  0  1  0  0  0  0  0  0  0  0
    8.9840  -12.0195   -1.7577 O   0  0  0  1  0  0  0  0  0  0  0  0
    8.9137  -10.3366   -0.1271 C   0  0  0  1  0  0  0  0  0  0  0  0
    9.2082   -9.3174    0.0125 H   0  0  0  1  0  0  0  0  0  0  0  0
   11.2263   -9.3121   -3.9350 N   0  0  0  1  0  0  0  0  0  0  0  0
   11.0089   -6.8057   -3.4666 C   0  0  0  1  0  0  0  0  0  0  0  0
    9.4071   -6.3831   -1.8760 C   0  0  0  1  0  0  0  0  0  0  0  0
    8.9071   -5.6619   -1.3178 H   0  0  0  1  0  0  0  0  0  0  0  0
    9.7911  -12.5007   -0.6683 C   0  0  0  1  0  0  0  0  0  0  0  0
    9.2771  -13.2776   -0.1418 H   0  0  0  1  0  0  0  0  0  0  0  0
   10.0302  -11.2882    0.2651 C   0  0  0  1  0  0  0  0  0  0  0  0
   10.9901  -10.8496    0.0886 H   0  0  0  1  0  0  0  0  0  0  0  0
    7.7270  -10.5970    0.6239 O   0  0  0  1  0  0  0  0  0  0  0  0
    7.3097   -9.7660    0.8622 H   0  0  0  1  0  0  0  0  0  0  0  0
   10.3335   -5.9178   -2.7288 N   0  0  0  1  0  0  0  0  0  0  0  0
   11.9721   -6.3693   -4.3376 N   0  0  0  1  0  0  0  0  0  0  0  0
   12.1074   -5.4088   -4.4774 H   0  0  0  1  0  0  0  0  0  0  0  0
   12.5257   -7.0177   -4.8208 H   0  0  0  1  0  0  0  0  0  0  0  0
   11.0929  -13.0228   -1.1810 C   0  0  0  1  0  0  0  0  0  0  0  0
   11.5359  -12.3093   -1.8440 H   0  0  0  1  0  0  0  0  0  0  0  0
   10.9363  -13.9446   -1.7012 H   0  0  0  1  0  0  0  0  0  0  0  0
    9.9243  -11.6674    1.6381 O   0  0  0  1  0  0  0  0  0  0  0  0
   10.6001  -12.3174    1.8441 H   0  0  0  1  0  0  0  0  0  0  0  0
   11.9582  -13.2406   -0.0419 O   0  0  0  1  0  0  0  0  0  0  0  0
   13.4543  -13.9008   -0.1653 P   0  0  0  1  0  0  0  0  0  0  0  0
   14.0049  -13.8549    1.4170 O   0  0  0  1  0  0  0  0  0  0  0  0
   13.4451  -15.2222   -0.8318 O   0  0  0  1  0  0  0  0  0  0  0  0
   14.4319  -12.8613   -0.9321 O   0  5  0  1  0  0  0  0  0  0  0  0
   13.6956  -14.5760    2.8160 S   0  0  0  1  0  0  0  0  0  0  0  0
   14.3969  -15.8399    2.7760 O   0  0  0  1  0  0  0  0  0  0  0  0
   13.7711  -16.5576    2.8980 H   0  0  0  1  0  0  0  0  0  0  0  0
   14.2189  -13.6308    3.7561 O   0  0  0  1  0  0  0  0  0  0  0  0
   12.2722  -14.7438    2.8715 O   0  0  0  1  0  0  0  0  0  0  0  0
  1  2  1  0  0  0  0
  1  3  1  0  0  0  0
  1  5  1  0  0  0  0
  2  7  2  0  0  0  0
  2  8  1  0  0  0  0
  3  4  1  0  0  0  0
  3  9  1  0  0  0  0
  3 10  1  0  0  0  0
  5  6  1  0  0  0  0
  5 12  2  0  0  0  0
  7 12  1  0  0  0  0
  7 13  1  0  0  0  0
  8 14  2  0  0  0  0
  9 16  1  0  0  0  0
 10 11  1  0  0  0  0
 10 18  1  0  0  0  0
 10 20  1  0  0  0  0
 13 22  2  0  0  0  0
 13 23  1  0  0  0  0
 14 15  1  0  0  0  0
 14 22  1  0  0  0  0
 16 17  1  0  0  0  0
 16 18  1  0  0  0  0
 16 26  1  0  0  0  0
 18 19  1  0  0  0  0
 18 29  1  0  0  0  0
 20 21  1  0  0  0  0
 23 24  1  0  0  0  0
 23 25  1  0  0  0  0
 26 27  1  0  0  0  0
 26 28  1  0  0  0  0
 26 31  1  0  0  0  0
 29 30  1  0  0  0  0
 31 32  1  0  0  0  0
 32 33  1  0  0  0  0
 32 34  2  0  0  0  0
 32 35  1  0  0  0  0
 33 36  1  0  0  0  0
 36 37  1  0  0  0  0
 36 39  2  0  0  0  0
 36 40  2  0  0  0  0
 37 38  1  0  0  0  0
M  END
> <ConfClashScore>
0 

> <ConfOneFourInteractionScore>
-0.974909 

> <ConfScore>
-0.283739 

> <ConfScorePBest>
0.0097425 

> <ConfTolerance>
0.869797 

$$$$
ChEBI.****
  PyMOL2.5          3D                             0

 40 42  0  0  0  0  0  0  0  0999 V2000
    9.6001   -9.8642   -2.4348 N   0  0  0  1  0  0  0  0  0  0  0  0
    9.7167   -8.4983   -2.4178 C   0  0  0  1  0  0  0  0  0  0  0  0
    8.7623  -10.6934   -1.5662 C   0  0  0  1  0  0  0  0  0  0  0  0
    7.7308  -10.4995   -1.7740 H   0  0  0  1  0  0  0  0  0  0  0  0
   10.5082  -10.3004   -3.3502 C   0  0  0  1  0  0  0  0  0  0  0  0
   10.6340  -11.3076   -3.5768 H   0  0  0  1  0  0  0  0  0  0  0  0
   10.7218   -8.1963   -3.3464 C   0  0  0  1  0  0  0  0  0  0  0  0
    9.0355   -7.6292   -1.6697 N   0  0  0  1  0  0  0  0  0  0  0  0
    9.0638  -12.0940   -1.7572 O   0  0  0  1  0  0  0  0  0  0  0  0
    9.0754  -10.4157   -0.0929 C   0  0  0  1  0  0  0  0  0  0  0  0
   10.0575  -10.0065    0.0203 H   0  0  0  1  0  0  0  0  0  0  0  0
   11.2091   -9.3594   -3.9221 N   0  0  0  1  0  0  0  0  0  0  0  0
   11.0233   -6.8447   -3.4853 C   0  0  0  1  0  0  0  0  0  0  0  0
    9.4181   -6.3810   -1.9098 C   0  0  0  1  0  0  0  0  0  0  0  0
    8.9247   -5.6464   -1.3634 H   0  0  0  1  0  0  0  0  0  0  0  0
    9.4980  -12.7035   -0.5719 C   0  0  0  1  0  0  0  0  0  0  0  0
    9.0800  -13.6837   -0.4745 H   0  0  0  1  0  0  0  0  0  0  0  0
    8.9820  -11.7791    0.5403 C   0  0  0  1  0  0  0  0  0  0  0  0
    9.5991  -11.8427    1.4121 H   0  0  0  1  0  0  0  0  0  0  0  0
    8.1177   -9.5207    0.4745 O   0  0  0  1  0  0  0  0  0  0  0  0
    8.4519   -9.1795    1.3073 H   0  0  0  1  0  0  0  0  0  0  0  0
   10.3558   -5.9388   -2.7625 N   0  0  0  1  0  0  0  0  0  0  0  0
   11.9879   -6.3125   -4.3339 N   0  0  0  1  0  0  0  0  0  0  0  0
   12.1060   -5.3414   -4.3937 H   0  0  0  1  0  0  0  0  0  0  0  0
   12.5496   -6.9084   -4.8722 H   0  0  0  1  0  0  0  0  0  0  0  0
   10.9884  -12.7916   -0.5375 C   0  0  0  1  0  0  0  0  0  0  0  0
   11.4142  -11.8207   -0.6827 H   0  0  0  1  0  0  0  0  0  0  0  0
   11.3323  -13.4511   -1.3068 H   0  0  0  1  0  0  0  0  0  0  0  0
    7.6328  -12.0944    0.8873 O   0  0  0  1  0  0  0  0  0  0  0  0
    7.0808  -11.3185    0.7650 H   0  0  0  1  0  0  0  0  0  0  0  0
   11.3655  -13.3036    0.7506 O   0  0  0  1  0  0  0  0  0  0  0  0
   12.9039  -13.4457    1.3008 P   0  0  0  1  0  0  0  0  0  0  0  0
   13.6821  -14.4098    0.2546 O   0  0  0  1  0  0  0  0  0  0  0  0
   13.4768  -12.0959    1.5012 O   0  0  0  1  0  0  0  0  0  0  0  0
   12.7814  -14.1721    2.7437 O   0  5  0  1  0  0  0  0  0  0  0  0
   15.3266  -14.8461    0.3755 S   0  0  0  1  0  0  0  0  0  0  0  0
   15.5635  -15.2398   -0.9840 O   0  0  0  1  0  0  0  0  0  0  0  0
   15.7689  -14.4642   -1.5111 H   0  0  0  1  0  0  0  0  0  0  0  0
   15.7895  -13.5922    0.7296 O   0  0  0  1  0  0  0  0  0  0  0  0
   15.3932  -15.8680    1.2846 O   0  0  0  1  0  0  0  0  0  0  0  0
  1  2  1  0  0  0  0
  1  3  1  0  0  0  0
  1  5  1  0  0  0  0
  2  7  2  0  0  0  0
  2  8  1  0  0  0  0
  3  4  1  0  0  0  0
  3  9  1  0  0  0  0
  3 10  1  0  0  0  0
  5  6  1  0  0  0  0
  5 12  2  0  0  0  0
  7 12  1  0  0  0  0
  7 13  1  0  0  0  0
  8 14  2  0  0  0  0
  9 16  1  0  0  0  0
 10 11  1  0  0  0  0
 10 18  1  0  0  0  0
 10 20  1  0  0  0  0
 13 22  2  0  0  0  0
 13 23  1  0  0  0  0
 14 15  1  0  0  0  0
 14 22  1  0  0  0  0
 16 17  1  0  0  0  0
 16 18  1  0  0  0  0
 16 26  1  0  0  0  0
 18 19  1  0  0  0  0
 18 29  1  0  0  0  0
 20 21  1  0  0  0  0
 23 24  1  0  0  0  0
 23 25  1  0  0  0  0
 26 27  1  0  0  0  0
 26 28  1  0  0  0  0
 26 31  1  0  0  0  0
 29 30  1  0  0  0  0
 31 32  1  0  0  0  0
 32 33  1  0  0  0  0
 32 34  2  0  0  0  0
 32 35  1  0  0  0  0
 33 36  1  0  0  0  0
 36 37  1  0  0  0  0
 36 39  2  0  0  0  0
 36 40  2  0  0  0  0
 37 38  1  0  0  0  0
M  END
> <ConfClashScore>
0 

> <ConfOneFourInteractionScore>
-0.965688 

> <ConfScore>
-0.282705 

> <ConfScorePBest>
0.0096395 

> <ConfTolerance>
0.874388 

$$$$
ChEBI.****
  PyMOL2.5          3D                             0

 40 42  0  0  0  0  0  0  0  0999 V2000
    9.6422   -9.8596   -2.4133 N   0  0  0  1  0  0  0  0  0  0  0  0
    9.7400   -8.4921   -2.3994 C   0  0  0  1  0  0  0  0  0  0  0  0
    8.6672  -10.6875   -1.6657 C   0  0  0  1  0  0  0  0  0  0  0  0
    7.6740  -10.3550   -1.8850 H   0  0  0  1  0  0  0  0  0  0  0  0
   10.5474  -10.2846   -3.3367 C   0  0  0  1  0  0  0  0  0  0  0  0
   10.6851  -11.2903   -3.5631 H   0  0  0  1  0  0  0  0  0  0  0  0
   10.7320   -8.1778   -3.3379 C   0  0  0  1  0  0  0  0  0  0  0  0
    9.0540   -7.6313   -1.6462 N   0  0  0  1  0  0  0  0  0  0  0  0
    8.8213  -12.0839   -2.0056 O   0  0  0  1  0  0  0  0  0  0  0  0
    8.9396  -10.6112   -0.1605 C   0  0  0  1  0  0  0  0  0  0  0  0
    9.9544  -10.3321    0.0322 H   0  0  0  1  0  0  0  0  0  0  0  0
   11.2298   -9.3350   -3.9166 N   0  0  0  1  0  0  0  0  0  0  0  0
   11.0134   -6.8224   -3.4817 C   0  0  0  1  0  0  0  0  0  0  0  0
    9.4170   -6.3784   -1.8917 C   0  0  0  1  0  0  0  0  0  0  0  0
    8.9187   -5.6498   -1.3417 H   0  0  0  1  0  0  0  0  0  0  0  0
    9.1300  -12.8657   -0.8837 C   0  0  0  1  0  0  0  0  0  0  0  0
    8.6026  -13.7962   -0.9135 H   0  0  0  1  0  0  0  0  0  0  0  0
    8.6673  -12.0162    0.3088 C   0  0  0  1  0  0  0  0  0  0  0  0
    9.2322  -12.2455    1.1881 H   0  0  0  1  0  0  0  0  0  0  0  0
    8.0607   -9.6802    0.4726 O   0  0  0  1  0  0  0  0  0  0  0  0
    7.1667  -10.0301    0.4692 H   0  0  0  1  0  0  0  0  0  0  0  0
   10.3404   -5.9247   -2.7539 N   0  0  0  1  0  0  0  0  0  0  0  0
   11.9624   -6.3437   -4.3461 N   0  0  0  1  0  0  0  0  0  0  0  0
   12.1529   -5.3830   -4.3815 H   0  0  0  1  0  0  0  0  0  0  0  0
   12.4506   -6.9618   -4.9291 H   0  0  0  1  0  0  0  0  0  0  0  0
   10.5983  -13.1271   -0.8089 C   0  0  0  1  0  0  0  0  0  0  0  0
   10.8040  -13.8302   -0.0290 H   0  0  0  1  0  0  0  0  0  0  0  0
   11.1215  -12.2143   -0.6140 H   0  0  0  1  0  0  0  0  0  0  0  0
    7.2768  -12.2111    0.5711 O   0  0  0  1  0  0  0  0  0  0  0  0
    6.9745  -13.0048    0.1237 H   0  0  0  1  0  0  0  0  0  0  0  0
   11.0105  -13.6665   -2.0750 O   0  0  0  1  0  0  0  0  0  0  0  0
   12.5236  -13.5686   -2.6997 P   0  0  0  1  0  0  0  0  0  0  0  0
   12.4434  -14.2056   -4.2478 O   0  0  0  1  0  0  0  0  0  0  0  0
   13.1410  -12.2247   -2.6418 O   0  0  0  1  0  0  0  0  0  0  0  0
   13.4834  -14.6395   -1.9538 O   0  5  0  1  0  0  0  0  0  0  0  0
   11.3591  -14.3736   -5.4256 S   0  0  0  1  0  0  0  0  0  0  0  0
   12.2114  -14.6970   -6.5526 O   0  0  0  1  0  0  0  0  0  0  0  0
   13.0203  -15.1054   -6.2357 H   0  0  0  1  0  0  0  0  0  0  0  0
   10.4980  -15.4600   -5.0281 O   0  0  0  1  0  0  0  0  0  0  0  0
   10.6957  -13.1084   -5.5394 O   0  0  0  1  0  0  0  0  0  0  0  0
  1  2  1  0  0  0  0
  1  3  1  0  0  0  0
  1  5  1  0  0  0  0
  2  7  2  0  0  0  0
  2  8  1  0  0  0  0
  3  4  1  0  0  0  0
  3  9  1  0  0  0  0
  3 10  1  0  0  0  0
  5  6  1  0  0  0  0
  5 12  2  0  0  0  0
  7 12  1  0  0  0  0
  7 13  1  0  0  0  0
  8 14  2  0  0  0  0
  9 16  1  0  0  0  0
 10 11  1  0  0  0  0
 10 18  1  0  0  0  0
 10 20  1  0  0  0  0
 13 22  2  0  0  0  0
 13 23  1  0  0  0  0
 14 15  1  0  0  0  0
 14 22  1  0  0  0  0
 16 17  1  0  0  0  0
 16 18  1  0  0  0  0
 16 26  1  0  0  0  0
 18 19  1  0  0  0  0
 18 29  1  0  0  0  0
 20 21  1  0  0  0  0
 23 24  1  0  0  0  0
 23 25  1  0  0  0  0
 26 27  1  0  0  0  0
 26 28  1  0  0  0  0
 26 31  1  0  0  0  0
 29 30  1  0  0  0  0
 31 32  1  0  0  0  0
 32 33  1  0  0  0  0
 32 34  2  0  0  0  0
 32 35  1  0  0  0  0
 33 36  1  0  0  0  0
 36 37  1  0  0  0  0
 36 39  2  0  0  0  0
 36 40  2  0  0  0  0
 37 38  1  0  0  0  0
M  END
> <ConfClashScore>
0 

> <ConfOneFourInteractionScore>
-0.979955 

> <ConfScore>
-0.28248 

> <ConfScorePBest>
0.0095365 

> <ConfTolerance>
0.934358 

$$$$
ChEBI.****
  PyMOL2.5          3D                             0

 40 42  0  0  0  0  0  0  0  0999 V2000
    9.6286   -9.8520   -2.4393 N   0  0  0  1  0  0  0  0  0  0  0  0
    9.7290   -8.4850   -2.4082 C   0  0  0  1  0  0  0  0  0  0  0  0
    8.7321  -10.6895   -1.6419 C   0  0  0  1  0  0  0  0  0  0  0  0
    8.8643  -10.4667   -0.6038 H   0  0  0  1  0  0  0  0  0  0  0  0
   10.5356  -10.2673   -3.3654 C   0  0  0  1  0  0  0  0  0  0  0  0
   10.6720  -11.2704   -3.6039 H   0  0  0  1  0  0  0  0  0  0  0  0
   10.7242   -8.1610   -3.3401 C   0  0  0  1  0  0  0  0  0  0  0  0
    9.0426   -7.6322   -1.6463 N   0  0  0  1  0  0  0  0  0  0  0  0
    7.4027  -10.4757   -2.0197 O   0  0  0  1  0  0  0  0  0  0  0  0
    9.0119  -12.1770   -1.9091 C   0  0  0  1  0  0  0  0  0  0  0  0
   10.0464  -12.3423   -2.1265 H   0  0  0  1  0  0  0  0  0  0  0  0
   11.2214   -9.3118   -3.9316 N   0  0  0  1  0  0  0  0  0  0  0  0
   11.0086   -6.8044   -3.4663 C   0  0  0  1  0  0  0  0  0  0  0  0
    9.4086   -6.3770   -1.8752 C   0  0  0  1  0  0  0  0  0  0  0  0
    8.9102   -5.6544   -1.3176 H   0  0  0  1  0  0  0  0  0  0  0  0
    6.9515  -11.4964   -2.9278 C   0  0  0  1  0  0  0  0  0  0  0  0
    6.1148  -12.0182   -2.5122 H   0  0  0  1  0  0  0  0  0  0  0  0
    8.1444  -12.4648   -3.1218 C   0  0  0  1  0  0  0  0  0  0  0  0
    8.6690  -12.2527   -4.0299 H   0  0  0  1  0  0  0  0  0  0  0  0
    8.6241  -12.9825   -0.7952 O   0  0  0  1  0  0  0  0  0  0  0  0
    7.9264  -13.5851   -1.0629 H   0  0  0  1  0  0  0  0  0  0  0  0
   10.3352   -5.9145   -2.7292 N   0  0  0  1  0  0  0  0  0  0  0  0
   11.9719   -6.3709   -4.3385 N   0  0  0  1  0  0  0  0  0  0  0  0
   12.1114   -5.4108   -4.4768 H   0  0  0  1  0  0  0  0  0  0  0  0
   12.5216   -7.0208   -4.8242 H   0  0  0  1  0  0  0  0  0  0  0  0
    6.5610  -10.8892   -4.2350 C   0  0  0  1  0  0  0  0  0  0  0  0
    5.7088  -10.2558   -4.1025 H   0  0  0  1  0  0  0  0  0  0  0  0
    6.3271  -11.6599   -4.9394 H   0  0  0  1  0  0  0  0  0  0  0  0
    7.7069  -13.8245   -3.1303 O   0  0  0  1  0  0  0  0  0  0  0  0
    7.0292  -13.9472   -2.4615 H   0  0  0  1  0  0  0  0  0  0  0  0
    7.6842  -10.1109   -4.7109 O   0  0  0  1  0  0  0  0  0  0  0  0
    7.5954   -9.1056   -6.0036 P   0  0  0  1  0  0  0  0  0  0  0  0
    7.3543   -9.9392   -7.3735 O   0  0  0  1  0  0  0  0  0  0  0  0
    6.5945   -8.0157   -6.0352 O   0  0  0  1  0  0  0  0  0  0  0  0
    9.0947   -8.5096   -6.1488 O   0  5  0  1  0  0  0  0  0  0  0  0
    8.1399  -11.2620   -7.7783 S   0  0  0  1  0  0  0  0  0  0  0  0
    8.8747  -11.3621   -6.5683 O   0  0  0  1  0  0  0  0  0  0  0  0
    8.2888  -11.6381   -5.8595 H   0  0  0  1  0  0  0  0  0  0  0  0
    7.1717  -12.2747   -7.9756 O   0  0  0  1  0  0  0  0  0  0  0  0
    8.9502  -11.0019   -8.9107 O   0  0  0  1  0  0  0  0  0  0  0  0
  1  2  1  0  0  0  0
  1  3  1  0  0  0  0
  1  5  1  0  0  0  0
  2  7  2  0  0  0  0
  2  8  1  0  0  0  0
  3  4  1  0  0  0  0
  3  9  1  0  0  0  0
  3 10  1  0  0  0  0
  5  6  1  0  0  0  0
  5 12  2  0  0  0  0
  7 12  1  0  0  0  0
  7 13  1  0  0  0  0
  8 14  2  0  0  0  0
  9 16  1  0  0  0  0
 10 11  1  0  0  0  0
 10 18  1  0  0  0  0
 10 20  1  0  0  0  0
 13 22  2  0  0  0  0
 13 23  1  0  0  0  0
 14 15  1  0  0  0  0
 14 22  1  0  0  0  0
 16 17  1  0  0  0  0
 16 18  1  0  0  0  0
 16 26  1  0  0  0  0
 18 19  1  0  0  0  0
 18 29  1  0  0  0  0
 20 21  1  0  0  0  0
 23 24  1  0  0  0  0
 23 25  1  0  0  0  0
 26 27  1  0  0  0  0
 26 28  1  0  0  0  0
 26 31  1  0  0  0  0
 29 30  1  0  0  0  0
 31 32  1  0  0  0  0
 32 33  1  0  0  0  0
 32 34  2  0  0  0  0
 32 35  1  0  0  0  0
 33 36  1  0  0  0  0
 36 37  1  0  0  0  0
 36 39  2  0  0  0  0
 36 40  2  0  0  0  0
 37 38  1  0  0  0  0
M  END
> <ConfClashScore>
0 

> <ConfOneFourInteractionScore>
-0.971822 

> <ConfScore>
-0.280332 

> <ConfScorePBest>
0.00943349 

> <ConfTolerance>
1.05802 

$$$$
ChEBI.****
  PyMOL2.5          3D                             0

 40 42  0  0  0  0  0  0  0  0999 V2000
    9.6245   -9.8582   -2.4296 N   0  0  0  1  0  0  0  0  0  0  0  0
    9.7292   -8.4913   -2.4090 C   0  0  0  1  0  0  0  0  0  0  0  0
    8.7241  -10.6866   -1.6270 C   0  0  0  1  0  0  0  0  0  0  0  0
    8.8475  -10.4481   -0.5913 H   0  0  0  1  0  0  0  0  0  0  0  0
   10.5314  -10.2836   -3.3511 C   0  0  0  1  0  0  0  0  0  0  0  0
   10.6649  -11.2889   -3.5815 H   0  0  0  1  0  0  0  0  0  0  0  0
   10.7267   -8.1777   -3.3419 C   0  0  0  1  0  0  0  0  0  0  0  0
    9.0443   -7.6304   -1.6548 N   0  0  0  1  0  0  0  0  0  0  0  0
    7.3518  -10.4856   -2.0340 O   0  0  0  1  0  0  0  0  0  0  0  0
    8.9991  -12.1731   -1.8729 C   0  0  0  1  0  0  0  0  0  0  0  0
    9.4753  -12.3240   -2.8191 H   0  0  0  1  0  0  0  0  0  0  0  0
   11.2210   -9.3348   -3.9238 N   0  0  0  1  0  0  0  0  0  0  0  0
   11.0156   -6.8232   -3.4784 C   0  0  0  1  0  0  0  0  0  0  0  0
    9.4147   -6.3782   -1.8929 C   0  0  0  1  0  0  0  0  0  0  0  0
    8.9178   -5.6496   -1.3417 H   0  0  0  1  0  0  0  0  0  0  0  0
    6.7553  -11.6757   -2.4733 C   0  0  0  1  0  0  0  0  0  0  0  0
    5.7465  -11.7455   -2.1238 H   0  0  0  1  0  0  0  0  0  0  0  0
    7.6222  -12.7835   -1.8576 C   0  0  0  1  0  0  0  0  0  0  0  0
    7.5884  -13.6739   -2.4500 H   0  0  0  1  0  0  0  0  0  0  0  0
    9.8142  -12.7217   -0.8361 O   0  0  0  1  0  0  0  0  0  0  0  0
   10.4627  -12.0700   -0.5598 H   0  0  0  1  0  0  0  0  0  0  0  0
   10.3440   -5.9253   -2.7492 N   0  0  0  1  0  0  0  0  0  0  0  0
   11.9705   -6.3453   -4.3366 N   0  0  0  1  0  0  0  0  0  0  0  0
   12.1224   -5.3801   -4.4124 H   0  0  0  1  0  0  0  0  0  0  0  0
   12.5018   -6.9687   -4.8746 H   0  0  0  1  0  0  0  0  0  0  0  0
    6.7731  -11.7573   -3.9643 C   0  0  0  1  0  0  0  0  0  0  0  0
    6.4294  -12.7199   -4.2807 H   0  0  0  1  0  0  0  0  0  0  0  0
    7.7670  -11.5961   -4.3262 H   0  0  0  1  0  0  0  0  0  0  0  0
    7.2060  -13.0819   -0.5242 O   0  0  0  1  0  0  0  0  0  0  0  0
    6.2493  -13.0271   -0.4673 H   0  0  0  1  0  0  0  0  0  0  0  0
    5.8892  -10.7258   -4.4723 O   0  0  0  1  0  0  0  0  0  0  0  0
    5.6974  -10.5027   -6.0857 P   0  0  0  1  0  0  0  0  0  0  0  0
    5.0066   -9.0591   -6.3474 O   0  0  0  1  0  0  0  0  0  0  0  0
    6.8531  -10.6142   -7.0034 O   0  0  0  1  0  0  0  0  0  0  0  0
    4.5694  -11.5399   -6.6112 O   0  5  0  1  0  0  0  0  0  0  0  0
    4.7511   -7.9741   -5.2366 S   0  0  0  1  0  0  0  0  0  0  0  0
    5.6232   -8.4553   -4.2049 O   0  0  0  1  0  0  0  0  0  0  0  0
    6.5013   -8.0882   -4.3305 H   0  0  0  1  0  0  0  0  0  0  0  0
    5.1939   -6.7468   -5.7456 O   0  0  0  1  0  0  0  0  0  0  0  0
    3.4187   -8.0206   -4.8017 O   0  0  0  1  0  0  0  0  0  0  0  0
  1  2  1  0  0  0  0
  1  3  1  0  0  0  0
  1  5  1  0  0  0  0
  2  7  2  0  0  0  0
  2  8  1  0  0  0  0
  3  4  1  0  0  0  0
  3  9  1  0  0  0  0
  3 10  1  0  0  0  0
  5  6  1  0  0  0  0
  5 12  2  0  0  0  0
  7 12  1  0  0  0  0
  7 13  1  0  0  0  0
  8 14  2  0  0  0  0
  9 16  1  0  0  0  0
 10 11  1  0  0  0  0
 10 18  1  0  0  0  0
 10 20  1  0  0  0  0
 13 22  2  0  0  0  0
 13 23  1  0  0  0  0
 14 15  1  0  0  0  0
 14 22  1  0  0  0  0
 16 17  1  0  0  0  0
 16 18  1  0  0  0  0
 16 26  1  0  0  0  0
 18 19  1  0  0  0  0
 18 29  1  0  0  0  0
 20 21  1  0  0  0  0
 23 24  1  0  0  0  0
 23 25  1  0  0  0  0
 26 27  1  0  0  0  0
 26 28  1  0  0  0  0
 26 31  1  0  0  0  0
 29 30  1  0  0  0  0
 31 32  1  0  0  0  0
 32 33  1  0  0  0  0
 32 34  2  0  0  0  0
 32 35  1  0  0  0  0
 33 36  1  0  0  0  0
 36 37  1  0  0  0  0
 36 39  2  0  0  0  0
 36 40  2  0  0  0  0
 37 38  1  0  0  0  0
M  END
> <ConfClashScore>
0 

> <ConfOneFourInteractionScore>
-0.96137 

> <ConfScore>
-0.276791 

> <ConfScorePBest>
0.00933049 

> <ConfTolerance>
0.953068 

$$$$
ChEBI.****
  PyMOL2.5          3D                             0

 40 42  0  0  0  0  0  0  0  0999 V2000
    9.6267   -9.8573   -2.4296 N   0  0  0  1  0  0  0  0  0  0  0  0
    9.7301   -8.4903   -2.4103 C   0  0  0  1  0  0  0  0  0  0  0  0
    8.7092  -10.7015   -1.6121 C   0  0  0  1  0  0  0  0  0  0  0  0
    9.0333  -10.6971   -0.5924 H   0  0  0  1  0  0  0  0  0  0  0  0
   10.5352  -10.2828   -3.3496 C   0  0  0  1  0  0  0  0  0  0  0  0
   10.6699  -11.2882   -3.5789 H   0  0  0  1  0  0  0  0  0  0  0  0
   10.7284   -8.1767   -3.3424 C   0  0  0  1  0  0  0  0  0  0  0  0
    9.0435   -7.6293   -1.6578 N   0  0  0  1  0  0  0  0  0  0  0  0
    7.3885  -10.2430   -1.7154 O   0  0  0  1  0  0  0  0  0  0  0  0
    8.6563  -12.1350   -2.1599 C   0  0  0  1  0  0  0  0  0  0  0  0
    8.7464  -12.1442   -3.2260 H   0  0  0  1  0  0  0  0  0  0  0  0
   11.2246   -9.3339   -3.9224 N   0  0  0  1  0  0  0  0  0  0  0  0
   11.0162   -6.8220   -3.4798 C   0  0  0  1  0  0  0  0  0  0  0  0
    9.4130   -6.3770   -1.8968 C   0  0  0  1  0  0  0  0  0  0  0  0
    8.9147   -5.6484   -1.3469 H   0  0  0  1  0  0  0  0  0  0  0  0
    6.4434  -11.3327   -1.8079 C   0  0  0  1  0  0  0  0  0  0  0  0
    5.7454  -11.2943   -0.9979 H   0  0  0  1  0  0  0  0  0  0  0  0
    7.2925  -12.6047   -1.7261 C   0  0  0  1  0  0  0  0  0  0  0  0
    6.9184  -13.3590   -2.3865 H   0  0  0  1  0  0  0  0  0  0  0  0
    9.6854  -12.9433   -1.5875 O   0  0  0  1  0  0  0  0  0  0  0  0
    9.3279  -13.8053   -1.3623 H   0  0  0  1  0  0  0  0  0  0  0  0
   10.3429   -5.9241   -2.7524 N   0  0  0  1  0  0  0  0  0  0  0  0
   11.9717   -6.3441   -4.3374 N   0  0  0  1  0  0  0  0  0  0  0  0
   12.1421   -5.3807   -4.3934 H   0  0  0  1  0  0  0  0  0  0  0  0
   12.4848   -6.9657   -4.8948 H   0  0  0  1  0  0  0  0  0  0  0  0
    5.7141  -11.2783   -3.0896 C   0  0  0  1  0  0  0  0  0  0  0  0
    6.4059  -11.4135   -3.8946 H   0  0  0  1  0  0  0  0  0  0  0  0
    5.2383  -10.3245   -3.1840 H   0  0  0  1  0  0  0  0  0  0  0  0
    7.3262  -13.1132   -0.3918 O   0  0  0  1  0  0  0  0  0  0  0  0
    8.1381  -12.8334    0.0373 H   0  0  0  1  0  0  0  0  0  0  0  0
    4.7102  -12.3190   -3.1441 O   0  0  0  1  0  0  0  0  0  0  0  0
    3.7465  -12.4895   -4.4601 P   0  0  0  1  0  0  0  0  0  0  0  0
    4.8239  -12.8562   -5.6904 O   0  0  0  1  0  0  0  0  0  0  0  0
    2.8915  -13.6933   -4.3596 O   0  0  0  1  0  0  0  0  0  0  0  0
    3.0921  -11.0178   -4.6340 O   0  5  0  1  0  0  0  0  0  0  0  0
    5.8046  -14.0610   -6.1123 S   0  0  0  1  0  0  0  0  0  0  0  0
    4.9472  -15.2098   -5.9078 O   0  0  0  1  0  0  0  0  0  0  0  0
    4.0282  -14.9358   -5.9518 H   0  0  0  1  0  0  0  0  0  0  0  0
    6.1423  -13.8392   -7.4899 O   0  0  0  1  0  0  0  0  0  0  0  0
    6.9244  -13.9981   -5.2123 O   0  0  0  1  0  0  0  0  0  0  0  0
  1  2  1  0  0  0  0
  1  3  1  0  0  0  0
  1  5  1  0  0  0  0
  2  7  2  0  0  0  0
  2  8  1  0  0  0  0
  3  4  1  0  0  0  0
  3  9  1  0  0  0  0
  3 10  1  0  0  0  0
  5  6  1  0  0  0  0
  5 12  2  0  0  0  0
  7 12  1  0  0  0  0
  7 13  1  0  0  0  0
  8 14  2  0  0  0  0
  9 16  1  0  0  0  0
 10 11  1  0  0  0  0
 10 18  1  0  0  0  0
 10 20  1  0  0  0  0
 13 22  2  0  0  0  0
 13 23  1  0  0  0  0
 14 15  1  0  0  0  0
 14 22  1  0  0  0  0
 16 17  1  0  0  0  0
 16 18  1  0  0  0  0
 16 26  1  0  0  0  0
 18 19  1  0  0  0  0
 18 29  1  0  0  0  0
 20 21  1  0  0  0  0
 23 24  1  0  0  0  0
 23 25  1  0  0  0  0
 26 27  1  0  0  0  0
 26 28  1  0  0  0  0
 26 31  1  0  0  0  0
 29 30  1  0  0  0  0
 31 32  1  0  0  0  0
 32 33  1  0  0  0  0
 32 34  2  0  0  0  0
 32 35  1  0  0  0  0
 33 36  1  0  0  0  0
 36 37  1  0  0  0  0
 36 39  2  0  0  0  0
 36 40  2  0  0  0  0
 37 38  1  0  0  0  0
M  END
> <ConfClashScore>
0 

> <ConfOneFourInteractionScore>
-0.979734 

> <ConfScore>
-0.274688 

> <ConfScorePBest>
0.00922749 

> <ConfTolerance>
1.10231 

$$$$
ChEBI.****
  PyMOL2.5          3D                             0

 40 42  0  0  0  0  0  0  0  0999 V2000
    9.6113   -9.8506   -2.4540 N   0  0  0  1  0  0  0  0  0  0  0  0
    9.7110   -8.4835   -2.4245 C   0  0  0  1  0  0  0  0  0  0  0  0
    8.8401  -10.6899   -1.5616 C   0  0  0  1  0  0  0  0  0  0  0  0
    7.8519  -10.2921   -1.4620 H   0  0  0  1  0  0  0  0  0  0  0  0
   10.5318  -10.2678   -3.3657 C   0  0  0  1  0  0  0  0  0  0  0  0
   10.6718  -11.2714   -3.5999 H   0  0  0  1  0  0  0  0  0  0  0  0
   10.7197   -8.1614   -3.3424 C   0  0  0  1  0  0  0  0  0  0  0  0
    9.0133   -7.6291   -1.6747 N   0  0  0  1  0  0  0  0  0  0  0  0
    8.7902  -12.0001   -2.0483 O   0  0  0  1  0  0  0  0  0  0  0  0
    9.5223  -10.7770   -0.1871 C   0  0  0  1  0  0  0  0  0  0  0  0
   10.0385   -9.8691    0.0459 H   0  0  0  1  0  0  0  0  0  0  0  0
   11.2256   -9.3135   -3.9240 N   0  0  0  1  0  0  0  0  0  0  0  0
   11.0057   -6.8051   -3.4676 C   0  0  0  1  0  0  0  0  0  0  0  0
    9.3825   -6.3744   -1.9011 C   0  0  0  1  0  0  0  0  0  0  0  0
    8.8758   -5.6505   -1.3525 H   0  0  0  1  0  0  0  0  0  0  0  0
    9.7651  -12.8328   -1.3956 C   0  0  0  1  0  0  0  0  0  0  0  0
    9.2818  -13.6448   -0.8937 H   0  0  0  1  0  0  0  0  0  0  0  0
   10.4950  -11.9283   -0.3721 C   0  0  0  1  0  0  0  0  0  0  0  0
   11.4304  -11.5837   -0.7608 H   0  0  0  1  0  0  0  0  0  0  0  0
    8.5739  -11.0637    0.8417 O   0  0  0  1  0  0  0  0  0  0  0  0
    7.7739  -11.4211    0.4495 H   0  0  0  1  0  0  0  0  0  0  0  0
   10.3214   -5.9136   -2.7425 N   0  0  0  1  0  0  0  0  0  0  0  0
   11.9817   -6.3733   -4.3265 N   0  0  0  1  0  0  0  0  0  0  0  0
   12.2168   -5.4227   -4.3630 H   0  0  0  1  0  0  0  0  0  0  0  0
   12.4447   -7.0151   -4.9046 H   0  0  0  1  0  0  0  0  0  0  0  0
   10.7362  -13.3712   -2.3942 C   0  0  0  1  0  0  0  0  0  0  0  0
   11.3422  -14.1281   -1.9417 H   0  0  0  1  0  0  0  0  0  0  0  0
   11.3615  -12.5822   -2.7565 H   0  0  0  1  0  0  0  0  0  0  0  0
   10.7152  -12.6184    0.8589 O   0  0  0  1  0  0  0  0  0  0  0  0
   11.0919  -13.4828    0.6787 H   0  0  0  1  0  0  0  0  0  0  0  0
    9.9742  -13.9378   -3.4872 O   0  0  0  1  0  0  0  0  0  0  0  0
   10.7281  -14.5577   -4.8051 P   0  0  0  1  0  0  0  0  0  0  0  0
    9.8050  -14.7012   -6.1306 O   0  0  0  1  0  0  0  0  0  0  0  0
   12.0202  -13.9166   -5.1368 O   0  0  0  1  0  0  0  0  0  0  0  0
   11.0480  -16.0639   -4.3018 O   0  5  0  1  0  0  0  0  0  0  0  0
    9.5541  -13.5211   -7.2112 S   0  0  0  1  0  0  0  0  0  0  0  0
   10.8364  -13.5120   -7.8546 O   0  0  0  1  0  0  0  0  0  0  0  0
   11.4766  -13.9634   -7.2997 H   0  0  0  1  0  0  0  0  0  0  0  0
    8.4929  -13.9620   -8.0092 O   0  0  0  1  0  0  0  0  0  0  0  0
    9.2802  -12.3537   -6.4550 O   0  0  0  1  0  0  0  0  0  0  0  0
  1  2  1  0  0  0  0
  1  3  1  0  0  0  0
  1  5  1  0  0  0  0
  2  7  2  0  0  0  0
  2  8  1  0  0  0  0
  3  4  1  0  0  0  0
  3  9  1  0  0  0  0
  3 10  1  0  0  0  0
  5  6  1  0  0  0  0
  5 12  2  0  0  0  0
  7 12  1  0  0  0  0
  7 13  1  0  0  0  0
  8 14  2  0  0  0  0
  9 16  1  0  0  0  0
 10 11  1  0  0  0  0
 10 18  1  0  0  0  0
 10 20  1  0  0  0  0
 13 22  2  0  0  0  0
 13 23  1  0  0  0  0
 14 15  1  0  0  0  0
 14 22  1  0  0  0  0
 16 17  1  0  0  0  0
 16 18  1  0  0  0  0
 16 26  1  0  0  0  0
 18 19  1  0  0  0  0
 18 29  1  0  0  0  0
 20 21  1  0  0  0  0
 23 24  1  0  0  0  0
 23 25  1  0  0  0  0
 26 27  1  0  0  0  0
 26 28  1  0  0  0  0
 26 31  1  0  0  0  0
 29 30  1  0  0  0  0
 31 32  1  0  0  0  0
 32 33  1  0  0  0  0
 32 34  2  0  0  0  0
 32 35  1  0  0  0  0
 33 36  1  0  0  0  0
 36 37  1  0  0  0  0
 36 39  2  0  0  0  0
 36 40  2  0  0  0  0
 37 38  1  0  0  0  0
M  END
> <ConfClashScore>
0 

> <ConfOneFourInteractionScore>
-0.9807 

> <ConfScore>
-0.274279 

> <ConfScorePBest>
0.00912449 

> <ConfTolerance>
1.10951 

$$$$
ChEBI.****
  PyMOL2.5          3D                             0

 40 42  0  0  0  0  0  0  0  0999 V2000
    9.6123   -9.8646   -2.4234 N   0  0  0  1  0  0  0  0  0  0  0  0
    9.7259   -8.4984   -2.4060 C   0  0  0  1  0  0  0  0  0  0  0  0
    8.7283  -10.7326   -1.6402 C   0  0  0  1  0  0  0  0  0  0  0  0
    7.7207  -10.6172   -1.9812 H   0  0  0  1  0  0  0  0  0  0  0  0
   10.5140  -10.2978   -3.3465 C   0  0  0  1  0  0  0  0  0  0  0  0
   10.6403  -11.3045   -3.5752 H   0  0  0  1  0  0  0  0  0  0  0  0
   10.7229   -8.1933   -3.3423 C   0  0  0  1  0  0  0  0  0  0  0  0
    9.0488   -7.6316   -1.6516 N   0  0  0  1  0  0  0  0  0  0  0  0
    9.1307  -12.0671   -1.7548 O   0  0  0  1  0  0  0  0  0  0  0  0
    8.8293  -10.3891   -0.1455 C   0  0  0  1  0  0  0  0  0  0  0  0
    9.0246   -9.3470   -0.0012 H   0  0  0  1  0  0  0  0  0  0  0  0
   11.2081   -9.3547   -3.9231 N   0  0  0  1  0  0  0  0  0  0  0  0
   11.0202   -6.8409   -3.4823 C   0  0  0  1  0  0  0  0  0  0  0  0
    9.4266   -6.3823   -1.8934 C   0  0  0  1  0  0  0  0  0  0  0  0
    8.9360   -5.6494   -1.3424 H   0  0  0  1  0  0  0  0  0  0  0  0
    9.9219  -12.4688   -0.6223 C   0  0  0  1  0  0  0  0  0  0  0  0
    9.4535  -13.2859   -0.1146 H   0  0  0  1  0  0  0  0  0  0  0  0
   10.0051  -11.2352    0.3102 C   0  0  0  1  0  0  0  0  0  0  0  0
   10.9297  -10.7134    0.1773 H   0  0  0  1  0  0  0  0  0  0  0  0
    7.6344  -10.7509    0.5483 O   0  0  0  1  0  0  0  0  0  0  0  0
    7.2212   -9.9623    0.9075 H   0  0  0  1  0  0  0  0  0  0  0  0
   10.3565   -5.9372   -2.7532 N   0  0  0  1  0  0  0  0  0  0  0  0
   11.9797   -6.3039   -4.3406 N   0  0  0  1  0  0  0  0  0  0  0  0
   12.4890   -6.8927   -4.9359 H   0  0  0  1  0  0  0  0  0  0  0  0
   12.1445   -5.3379   -4.3484 H   0  0  0  1  0  0  0  0  0  0  0  0
   11.2728  -12.8701   -1.0599 C   0  0  0  1  0  0  0  0  0  0  0  0
   11.1971  -13.7280   -1.6950 H   0  0  0  1  0  0  0  0  0  0  0  0
   11.8638  -13.1123   -0.2014 H   0  0  0  1  0  0  0  0  0  0  0  0
    9.8648  -11.6155    1.6803 O   0  0  0  1  0  0  0  0  0  0  0  0
    9.4992  -12.5018    1.7310 H   0  0  0  1  0  0  0  0  0  0  0  0
   11.9087  -11.7932   -1.7877 O   0  0  0  1  0  0  0  0  0  0  0  0
   13.4461  -11.8776   -2.3525 P   0  0  0  1  0  0  0  0  0  0  0  0
   14.3579  -11.9582   -0.9485 O   0  0  0  1  0  0  0  0  0  0  0  0
   13.7370  -13.0941   -3.1437 O   0  0  0  1  0  0  0  0  0  0  0  0
   13.8857  -10.5217   -3.1224 O   0  5  0  1  0  0  0  0  0  0  0  0
   15.4621  -11.0760   -0.1780 S   0  0  0  1  0  0  0  0  0  0  0  0
   15.5296  -11.7563    1.0968 O   0  0  0  1  0  0  0  0  0  0  0  0
   15.2063  -11.1742    1.7882 H   0  0  0  1  0  0  0  0  0  0  0  0
   16.6695  -11.1842   -0.9472 O   0  0  0  1  0  0  0  0  0  0  0  0
   14.9285   -9.7466   -0.1034 O   0  0  0  1  0  0  0  0  0  0  0  0
  1  2  1  0  0  0  0
  1  3  1  0  0  0  0
  1  5  1  0  0  0  0
  2  7  2  0  0  0  0
  2  8  1  0  0  0  0
  3  4  1  0  0  0  0
  3  9  1  0  0  0  0
  3 10  1  0  0  0  0
  5  6  1  0  0  0  0
  5 12  2  0  0  0  0
  7 12  1  0  0  0  0
  7 13  1  0  0  0  0
  8 14  2  0  0  0  0
  9 16  1  0  0  0  0
 10 11  1  0  0  0  0
 10 18  1  0  0  0  0
 10 20  1  0  0  0  0
 13 22  2  0  0  0  0
 13 23  1  0  0  0  0
 14 15  1  0  0  0  0
 14 22  1  0  0  0  0
 16 17  1  0  0  0  0
 16 18  1  0  0  0  0
 16 26  1  0  0  0  0
 18 19  1  0  0  0  0
 18 29  1  0  0  0  0
 20 21  1  0  0  0  0
 23 24  1  0  0  0  0
 23 25  1  0  0  0  0
 26 27  1  0  0  0  0
 26 28  1  0  0  0  0
 26 31  1  0  0  0  0
 29 30  1  0  0  0  0
 31 32  1  0  0  0  0
 32 33  1  0  0  0  0
 32 34  2  0  0  0  0
 32 35  1  0  0  0  0
 33 36  1  0  0  0  0
 36 37  1  0  0  0  0
 36 39  2  0  0  0  0
 36 40  2  0  0  0  0
 37 38  1  0  0  0  0
M  END
> <ConfClashScore>
0 

> <ConfOneFourInteractionScore>
-0.988194 

> <ConfScore>
-0.272887 

> <ConfScorePBest>
0.00902149 

> <ConfTolerance>
0.889924 

$$$$
ChEBI.****
  PyMOL2.5          3D                             0

 40 42  0  0  0  0  0  0  0  0999 V2000
    9.5999   -9.8597   -2.4280 N   0  0  0  1  0  0  0  0  0  0  0  0
    9.7236   -8.4944   -2.4043 C   0  0  0  1  0  0  0  0  0  0  0  0
    8.6876  -10.7290   -1.6594 C   0  0  0  1  0  0  0  0  0  0  0  0
    8.7312  -11.7249   -2.0481 H   0  0  0  1  0  0  0  0  0  0  0  0
   10.5161  -10.2973   -3.3345 C   0  0  0  1  0  0  0  0  0  0  0  0
   10.6392  -11.3042   -3.5636 H   0  0  0  1  0  0  0  0  0  0  0  0
   10.7411   -8.1944   -3.3200 C   0  0  0  1  0  0  0  0  0  0  0  0
    9.0384   -7.6245   -1.6609 N   0  0  0  1  0  0  0  0  0  0  0  0
    9.0357  -10.7165   -0.2628 O   0  0  0  1  0  0  0  0  0  0  0  0
    7.2747  -10.1985   -1.7190 C   0  0  0  1  0  0  0  0  0  0  0  0
    7.2633   -9.1288   -1.7421 H   0  0  0  1  0  0  0  0  0  0  0  0
   11.2287   -9.3579   -3.8946 N   0  0  0  1  0  0  0  0  0  0  0  0
   11.0514   -6.8439   -3.4502 C   0  0  0  1  0  0  0  0  0  0  0  0
    9.4305   -6.3775   -1.8916 C   0  0  0  1  0  0  0  0  0  0  0  0
    8.9348   -5.6423   -1.3481 H   0  0  0  1  0  0  0  0  0  0  0  0
    7.8394  -10.6703    0.5365 C   0  0  0  1  0  0  0  0  0  0  0  0
    7.8048  -11.5082    1.2011 H   0  0  0  1  0  0  0  0  0  0  0  0
    6.6797  -10.7235   -0.4356 C   0  0  0  1  0  0  0  0  0  0  0  0
    5.8741  -10.1018   -0.1047 H   0  0  0  1  0  0  0  0  0  0  0  0
    6.5789  -10.7075   -2.8578 O   0  0  0  1  0  0  0  0  0  0  0  0
    6.5670  -11.6668   -2.8236 H   0  0  0  1  0  0  0  0  0  0  0  0
   10.3804   -5.9372   -2.7317 N   0  0  0  1  0  0  0  0  0  0  0  0
   11.9782   -6.3106   -4.3608 N   0  0  0  1  0  0  0  0  0  0  0  0
   12.0684   -5.3394   -4.4559 H   0  0  0  1  0  0  0  0  0  0  0  0
   12.5347   -6.9097   -4.9009 H   0  0  0  1  0  0  0  0  0  0  0  0
    7.7940   -9.4045    1.3275 C   0  0  0  1  0  0  0  0  0  0  0  0
    6.8521   -9.3213    1.8283 H   0  0  0  1  0  0  0  0  0  0  0  0
    7.9290   -8.5644    0.6787 H   0  0  0  1  0  0  0  0  0  0  0  0
    6.2117  -12.0630   -0.5998 O   0  0  0  1  0  0  0  0  0  0  0  0
    6.6568  -12.6371    0.0277 H   0  0  0  1  0  0  0  0  0  0  0  0
    8.8657   -9.4545    2.2985 O   0  0  0  1  0  0  0  0  0  0  0  0
    9.2202   -8.1501    3.2272 P   0  0  0  1  0  0  0  0  0  0  0  0
    9.9825   -7.1060    2.2483 O   0  0  0  1  0  0  0  0  0  0  0  0
    8.0618   -7.6934    4.0271 O   0  0  0  1  0  0  0  0  0  0  0  0
   10.2795   -8.6712    4.3367 O   0  5  0  1  0  0  0  0  0  0  0  0
   11.3160   -7.4030    1.5030 S   0  0  0  1  0  0  0  0  0  0  0  0
   10.8277   -7.9979    0.1663 O   0  0  0  1  0  0  0  0  0  0  0  0
    9.8955   -8.2170    0.2345 H   0  0  0  1  0  0  0  0  0  0  0  0
   12.0265   -6.2590    1.2474 O   0  0  0  1  0  0  0  0  0  0  0  0
   11.7576   -8.6088    2.0449 O   0  0  0  1  0  0  0  0  0  0  0  0
  1  2  1  0  0  0  0
  1  3  1  0  0  0  0
  1  5  1  0  0  0  0
  2  7  2  0  0  0  0
  2  8  1  0  0  0  0
  3  4  1  0  0  0  0
  3  9  1  0  0  0  0
  3 10  1  0  0  0  0
  5  6  1  0  0  0  0
  5 12  2  0  0  0  0
  7 12  1  0  0  0  0
  7 13  1  0  0  0  0
  8 14  2  0  0  0  0
  9 16  1  0  0  0  0
 10 11  1  0  0  0  0
 10 18  1  0  0  0  0
 10 20  1  0  0  0  0
 13 22  2  0  0  0  0
 13 23  1  0  0  0  0
 14 15  1  0  0  0  0
 14 22  1  0  0  0  0
 16 17  1  0  0  0  0
 16 18  1  0  0  0  0
 16 26  1  0  0  0  0
 18 19  1  0  0  0  0
 18 29  1  0  0  0  0
 20 21  1  0  0  0  0
 23 24  1  0  0  0  0
 23 25  1  0  0  0  0
 26 27  1  0  0  0  0
 26 28  1  0  0  0  0
 26 31  1  0  0  0  0
 29 30  1  0  0  0  0
 31 32  1  0  0  0  0
 32 33  1  0  0  0  0
 32 34  2  0  0  0  0
 32 35  1  0  0  0  0
 33 36  1  0  0  0  0
 36 37  1  0  0  0  0
 36 39  2  0  0  0  0
 36 40  2  0  0  0  0
 37 38  1  0  0  0  0
M  END
> <ConfClashScore>
0 

> <ConfOneFourInteractionScore>
-0.963418 

> <ConfScore>
-0.269858 

> <ConfScorePBest>
0.00891849 

> <ConfTolerance>
1.19035 

$$$$
ChEBI.****
  PyMOL2.5          3D                             0

 40 42  0  0  0  0  0  0  0  0999 V2000
    9.6061   -9.8560   -2.4141 N   0  0  0  1  0  0  0  0  0  0  0  0
    9.7236   -8.4901   -2.4031 C   0  0  0  1  0  0  0  0  0  0  0  0
    8.7335  -10.7628   -1.6454 C   0  0  0  1  0  0  0  0  0  0  0  0
    8.8814  -11.7687   -1.9789 H   0  0  0  1  0  0  0  0  0  0  0  0
   10.5070  -10.2962   -3.3346 C   0  0  0  1  0  0  0  0  0  0  0  0
   10.6306  -11.3043   -3.5585 H   0  0  0  1  0  0  0  0  0  0  0  0
   10.7220   -8.1923   -3.3403 C   0  0  0  1  0  0  0  0  0  0  0  0
    9.0485   -7.6178   -1.6533 N   0  0  0  1  0  0  0  0  0  0  0  0
    8.9897  -10.6523   -0.2717 O   0  0  0  1  0  0  0  0  0  0  0  0
    7.2608  -10.3527   -1.7901 C   0  0  0  1  0  0  0  0  0  0  0  0
    7.1619   -9.2901   -1.8667 H   0  0  0  1  0  0  0  0  0  0  0  0
   11.2042   -9.3578   -3.9152 N   0  0  0  1  0  0  0  0  0  0  0  0
   11.0233   -6.8414   -3.4865 C   0  0  0  1  0  0  0  0  0  0  0  0
    9.4301   -6.3707   -1.9008 C   0  0  0  1  0  0  0  0  0  0  0  0
    8.9413   -5.6338   -1.3535 H   0  0  0  1  0  0  0  0  0  0  0  0
    7.7742  -10.6869    0.5097 C   0  0  0  1  0  0  0  0  0  0  0  0
    7.7918  -11.5081    1.1954 H   0  0  0  1  0  0  0  0  0  0  0  0
    6.6479  -10.8644   -0.5129 C   0  0  0  1  0  0  0  0  0  0  0  0
    5.7887  -10.2875   -0.2415 H   0  0  0  1  0  0  0  0  0  0  0  0
    6.6687  -10.9656   -2.9222 O   0  0  0  1  0  0  0  0  0  0  0  0
    7.3546  -11.2235   -3.5424 H   0  0  0  1  0  0  0  0  0  0  0  0
   10.3617   -5.9324   -2.7621 N   0  0  0  1  0  0  0  0  0  0  0  0
   11.9819   -6.3129   -4.3442 N   0  0  0  1  0  0  0  0  0  0  0  0
   12.0982   -5.3421   -4.4105 H   0  0  0  1  0  0  0  0  0  0  0  0
   12.5411   -6.9113   -4.8824 H   0  0  0  1  0  0  0  0  0  0  0  0
    7.6001   -9.4104    1.2649 C   0  0  0  1  0  0  0  0  0  0  0  0
    8.4113   -9.2789    1.9502 H   0  0  0  1  0  0  0  0  0  0  0  0
    6.6763   -9.4293    1.8044 H   0  0  0  1  0  0  0  0  0  0  0  0
    6.2798  -12.2390   -0.6361 O   0  0  0  1  0  0  0  0  0  0  0  0
    5.6678  -12.3424   -1.3684 H   0  0  0  1  0  0  0  0  0  0  0  0
    7.5871   -8.3292    0.3033 O   0  0  0  1  0  0  0  0  0  0  0  0
    7.4790   -6.7497    0.7310 P   0  0  0  1  0  0  0  0  0  0  0  0
    8.8489   -6.2363    1.4305 O   0  0  0  1  0  0  0  0  0  0  0  0
    7.1723   -5.9180   -0.4541 O   0  0  0  1  0  0  0  0  0  0  0  0
    6.2692   -6.5703    1.7935 O   0  5  0  1  0  0  0  0  0  0  0  0
    9.0639   -6.0793    3.0186 S   0  0  0  1  0  0  0  0  0  0  0  0
    8.2418   -7.1758    3.5013 O   0  0  0  1  0  0  0  0  0  0  0  0
    8.1066   -7.8105    2.7939 H   0  0  0  1  0  0  0  0  0  0  0  0
   10.4765   -6.2570    3.2674 O   0  0  0  1  0  0  0  0  0  0  0  0
    8.6020   -4.7651    3.3796 O   0  0  0  1  0  0  0  0  0  0  0  0
  1  2  1  0  0  0  0
  1  3  1  0  0  0  0
  1  5  1  0  0  0  0
  2  7  2  0  0  0  0
  2  8  1  0  0  0  0
  3  4  1  0  0  0  0
  3  9  1  0  0  0  0
  3 10  1  0  0  0  0
  5  6  1  0  0  0  0
  5 12  2  0  0  0  0
  7 12  1  0  0  0  0
  7 13  1  0  0  0  0
  8 14  2  0  0  0  0
  9 16  1  0  0  0  0
 10 11  1  0  0  0  0
 10 18  1  0  0  0  0
 10 20  1  0  0  0  0
 13 22  2  0  0  0  0
 13 23  1  0  0  0  0
 14 15  1  0  0  0  0
 14 22  1  0  0  0  0
 16 17  1  0  0  0  0
 16 18  1  0  0  0  0
 16 26  1  0  0  0  0
 18 19  1  0  0  0  0
 18 29  1  0  0  0  0
 20 21  1  0  0  0  0
 23 24  1  0  0  0  0
 23 25  1  0  0  0  0
 26 27  1  0  0  0  0
 26 28  1  0  0  0  0
 26 31  1  0  0  0  0
 29 30  1  0  0  0  0
 31 32  1  0  0  0  0
 32 33  1  0  0  0  0
 32 34  2  0  0  0  0
 32 35  1  0  0  0  0
 33 36  1  0  0  0  0
 36 37  1  0  0  0  0
 36 39  2  0  0  0  0
 36 40  2  0  0  0  0
 37 38  1  0  0  0  0
M  END
> <ConfClashScore>
0 

> <ConfOneFourInteractionScore>
-0.974092 

> <ConfScore>
-0.269247 

> <ConfScorePBest>
0.00881549 

> <ConfTolerance>
1.21647 

$$$$
ChEBI.****
  PyMOL2.5          3D                             0

 40 42  0  0  0  0  0  0  0  0999 V2000
    9.6287   -9.8625   -2.4365 N   0  0  0  1  0  0  0  0  0  0  0  0
    9.7323   -8.4956   -2.4130 C   0  0  0  1  0  0  0  0  0  0  0  0
    8.7000  -10.6516   -1.6037 C   0  0  0  1  0  0  0  0  0  0  0  0
    8.4625  -11.5675   -2.1033 H   0  0  0  1  0  0  0  0  0  0  0  0
   10.5360  -10.2852   -3.3589 C   0  0  0  1  0  0  0  0  0  0  0  0
   10.6703  -11.2899   -3.5915 H   0  0  0  1  0  0  0  0  0  0  0  0
   10.7296   -8.1792   -3.3453 C   0  0  0  1  0  0  0  0  0  0  0  0
    9.0468   -7.6369   -1.6569 N   0  0  0  1  0  0  0  0  0  0  0  0
    9.2895  -10.9257   -0.3640 O   0  0  0  1  0  0  0  0  0  0  0  0
    7.4151   -9.8474   -1.3499 C   0  0  0  1  0  0  0  0  0  0  0  0
    7.3380   -9.0207   -2.0248 H   0  0  0  1  0  0  0  0  0  0  0  0
   11.2248   -9.3346   -3.9296 N   0  0  0  1  0  0  0  0  0  0  0  0
   11.0174   -6.8241   -3.4788 C   0  0  0  1  0  0  0  0  0  0  0  0
    9.4162   -6.3839   -1.8924 C   0  0  0  1  0  0  0  0  0  0  0  0
    8.9187   -5.6569   -1.3396 H   0  0  0  1  0  0  0  0  0  0  0  0
    8.4409  -10.4510    0.7252 C   0  0  0  1  0  0  0  0  0  0  0  0
    7.8242  -11.2423    1.0974 H   0  0  0  1  0  0  0  0  0  0  0  0
    7.5976   -9.3660    0.0957 C   0  0  0  1  0  0  0  0  0  0  0  0
    8.1037   -8.4237    0.1239 H   0  0  0  1  0  0  0  0  0  0  0  0
    6.2567  -10.6748   -1.4748 O   0  0  0  1  0  0  0  0  0  0  0  0
    6.0241  -11.0324   -0.6148 H   0  0  0  1  0  0  0  0  0  0  0  0
   10.3451   -5.9284   -2.7477 N   0  0  0  1  0  0  0  0  0  0  0  0
   11.9681   -6.3456   -4.3325 N   0  0  0  1  0  0  0  0  0  0  0  0
   12.1011   -5.3792   -4.4259 H   0  0  0  1  0  0  0  0  0  0  0  0
   12.5180   -6.9684   -4.8523 H   0  0  0  1  0  0  0  0  0  0  0  0
    9.2590   -9.9050    1.8252 C   0  0  0  1  0  0  0  0  0  0  0  0
    8.6160   -9.4554    2.5528 H   0  0  0  1  0  0  0  0  0  0  0  0
    9.9273   -9.1666    1.4342 H   0  0  0  1  0  0  0  0  0  0  0  0
    6.3361   -9.2502    0.7586 O   0  0  0  1  0  0  0  0  0  0  0  0
    5.7926   -8.6035    0.3026 H   0  0  0  1  0  0  0  0  0  0  0  0
   10.0289  -10.9601    2.4554 O   0  0  0  1  0  0  0  0  0  0  0  0
   10.9935  -10.6427    3.7432 P   0  0  0  1  0  0  0  0  0  0  0  0
    9.7411  -10.2735    4.7940 O   0  0  0  1  0  0  0  0  0  0  0  0
   11.8936  -11.7358    4.1736 O   0  0  0  1  0  0  0  0  0  0  0  0
   11.7244   -9.2253    3.4586 O   0  5  0  1  0  0  0  0  0  0  0  0
    9.1705   -9.0002    5.5719 S   0  0  0  1  0  0  0  0  0  0  0  0
    7.7580   -9.2462    5.7861 O   0  0  0  1  0  0  0  0  0  0  0  0
    7.2700   -8.4265    5.6780 H   0  0  0  1  0  0  0  0  0  0  0  0
    9.9007   -8.9201    6.8155 O   0  0  0  1  0  0  0  0  0  0  0  0
    9.4470   -7.9383    4.6449 O   0  0  0  1  0  0  0  0  0  0  0  0
  1  2  1  0  0  0  0
  1  3  1  0  0  0  0
  1  5  1  0  0  0  0
  2  7  2  0  0  0  0
  2  8  1  0  0  0  0
  3  4  1  0  0  0  0
  3  9  1  0  0  0  0
  3 10  1  0  0  0  0
  5  6  1  0  0  0  0
  5 12  2  0  0  0  0
  7 12  1  0  0  0  0
  7 13  1  0  0  0  0
  8 14  2  0  0  0  0
  9 16  1  0  0  0  0
 10 11  1  0  0  0  0
 10 18  1  0  0  0  0
 10 20  1  0  0  0  0
 13 22  2  0  0  0  0
 13 23  1  0  0  0  0
 14 15  1  0  0  0  0
 14 22  1  0  0  0  0
 16 17  1  0  0  0  0
 16 18  1  0  0  0  0
 16 26  1  0  0  0  0
 18 19  1  0  0  0  0
 18 29  1  0  0  0  0
 20 21  1  0  0  0  0
 23 24  1  0  0  0  0
 23 25  1  0  0  0  0
 26 27  1  0  0  0  0
 26 28  1  0  0  0  0
 26 31  1  0  0  0  0
 29 30  1  0  0  0  0
 31 32  1  0  0  0  0
 32 33  1  0  0  0  0
 32 34  2  0  0  0  0
 32 35  1  0  0  0  0
 33 36  1  0  0  0  0
 36 37  1  0  0  0  0
 36 39  2  0  0  0  0
 36 40  2  0  0  0  0
 37 38  1  0  0  0  0
M  END
> <ConfClashScore>
0 

> <ConfOneFourInteractionScore>
-0.975472 

> <ConfScore>
-0.26667 

> <ConfScorePBest>
0.00871249 

> <ConfTolerance>
1.10161 

$$$$
ChEBI.****
  PyMOL2.5          3D                             0

 40 42  0  0  0  0  0  0  0  0999 V2000
    9.6319   -9.8729   -2.4314 N   0  0  0  1  0  0  0  0  0  0  0  0
    9.7305   -8.5056   -2.4115 C   0  0  0  1  0  0  0  0  0  0  0  0
    8.7144  -10.6102   -1.5641 C   0  0  0  1  0  0  0  0  0  0  0  0
    8.9672  -10.4289   -0.5404 H   0  0  0  1  0  0  0  0  0  0  0  0
   10.5217  -10.2930   -3.3720 C   0  0  0  1  0  0  0  0  0  0  0  0
   10.6552  -11.2975   -3.6062 H   0  0  0  1  0  0  0  0  0  0  0  0
   10.7070   -8.1863   -3.3645 C   0  0  0  1  0  0  0  0  0  0  0  0
    9.0573   -7.6488   -1.6422 N   0  0  0  1  0  0  0  0  0  0  0  0
    7.3860  -10.2428   -1.8201 O   0  0  0  1  0  0  0  0  0  0  0  0
    8.7588  -12.1127   -1.8775 C   0  0  0  1  0  0  0  0  0  0  0  0
    8.9223  -12.2845   -2.9209 H   0  0  0  1  0  0  0  0  0  0  0  0
   11.1947   -9.3403   -3.9578 N   0  0  0  1  0  0  0  0  0  0  0  0
   10.9864   -6.8302   -3.5054 C   0  0  0  1  0  0  0  0  0  0  0  0
    9.4167   -6.3946   -1.8866 C   0  0  0  1  0  0  0  0  0  0  0  0
    8.9278   -5.6690   -1.3244 H   0  0  0  1  0  0  0  0  0  0  0  0
    6.4956  -11.3811   -1.7948 C   0  0  0  1  0  0  0  0  0  0  0  0
    5.7426  -11.2522   -1.0456 H   0  0  0  1  0  0  0  0  0  0  0  0
    7.3892  -12.5787   -1.4585 C   0  0  0  1  0  0  0  0  0  0  0  0
    7.0930  -13.4456   -2.0112 H   0  0  0  1  0  0  0  0  0  0  0  0
    9.7789  -12.7666   -1.1211 O   0  0  0  1  0  0  0  0  0  0  0  0
    9.3786  -13.2534   -0.3970 H   0  0  0  1  0  0  0  0  0  0  0  0
   10.3258   -5.9363   -2.7615 N   0  0  0  1  0  0  0  0  0  0  0  0
   11.9923   -6.3297   -4.3321 N   0  0  0  1  0  0  0  0  0  0  0  0
   12.0745   -5.3635   -4.4740 H   0  0  0  1  0  0  0  0  0  0  0  0
   12.6169   -6.9443   -4.7709 H   0  0  0  1  0  0  0  0  0  0  0  0
    5.8544  -11.5666   -3.1108 C   0  0  0  1  0  0  0  0  0  0  0  0
    6.6037  -11.8009   -3.8379 H   0  0  0  1  0  0  0  0  0  0  0  0
    5.3560  -10.6620   -3.3905 H   0  0  0  1  0  0  0  0  0  0  0  0
    7.3522  -12.8689   -0.0604 O   0  0  0  1  0  0  0  0  0  0  0  0
    8.0934  -12.4418    0.3752 H   0  0  0  1  0  0  0  0  0  0  0  0
    4.8905  -12.6443   -3.0557 O   0  0  0  1  0  0  0  0  0  0  0  0
    3.9366  -13.0603   -4.3232 P   0  0  0  1  0  0  0  0  0  0  0  0
    3.0102  -14.2227   -3.6750 O   0  0  0  1  0  0  0  0  0  0  0  0
    3.2066  -11.8441   -4.7454 O   0  0  0  1  0  0  0  0  0  0  0  0
    4.9537  -13.6120   -5.4571 O   0  5  0  1  0  0  0  0  0  0  0  0
    1.7721  -13.9567   -2.6339 S   0  0  0  1  0  0  0  0  0  0  0  0
    2.0952  -14.8294   -1.5542 O   0  0  0  1  0  0  0  0  0  0  0  0
    2.1613  -14.3228   -0.7414 H   0  0  0  1  0  0  0  0  0  0  0  0
    1.9834  -12.5739   -2.4519 O   0  0  0  1  0  0  0  0  0  0  0  0
    0.5026  -14.2593   -3.2261 O   0  0  0  1  0  0  0  0  0  0  0  0
  1  2  1  0  0  0  0
  1  3  1  0  0  0  0
  1  5  1  0  0  0  0
  2  7  2  0  0  0  0
  2  8  1  0  0  0  0
  3  4  1  0  0  0  0
  3  9  1  0  0  0  0
  3 10  1  0  0  0  0
  5  6  1  0  0  0  0
  5 12  2  0  0  0  0
  7 12  1  0  0  0  0
  7 13  1  0  0  0  0
  8 14  2  0  0  0  0
  9 16  1  0  0  0  0
 10 11  1  0  0  0  0
 10 18  1  0  0  0  0
 10 20  1  0  0  0  0
 13 22  2  0  0  0  0
 13 23  1  0  0  0  0
 14 15  1  0  0  0  0
 14 22  1  0  0  0  0
 16 17  1  0  0  0  0
 16 18  1  0  0  0  0
 16 26  1  0  0  0  0
 18 19  1  0  0  0  0
 18 29  1  0  0  0  0
 20 21  1  0  0  0  0
 23 24  1  0  0  0  0
 23 25  1  0  0  0  0
 26 27  1  0  0  0  0
 26 28  1  0  0  0  0
 26 31  1  0  0  0  0
 29 30  1  0  0  0  0
 31 32  1  0  0  0  0
 32 33  1  0  0  0  0
 32 34  2  0  0  0  0
 32 35  1  0  0  0  0
 33 36  1  0  0  0  0
 36 37  1  0  0  0  0
 36 39  2  0  0  0  0
 36 40  2  0  0  0  0
 37 38  1  0  0  0  0
M  END
> <ConfClashScore>
0 

> <ConfOneFourInteractionScore>
-0.963584 

> <ConfScore>
-0.263722 

> <ConfScorePBest>
0.00860949 

> <ConfTolerance>
1.04832 

$$$$
ChEBI.****
  PyMOL2.5          3D                             0

 40 42  0  0  0  0  0  0  0  0999 V2000
    9.6033   -9.8646   -2.4314 N   0  0  0  1  0  0  0  0  0  0  0  0
    9.7167   -8.4983   -2.4178 C   0  0  0  1  0  0  0  0  0  0  0  0
    8.7657  -10.6934   -1.5623 C   0  0  0  1  0  0  0  0  0  0  0  0
    7.7455  -10.6235   -1.8772 H   0  0  0  1  0  0  0  0  0  0  0  0
   10.5143  -10.3011   -3.3437 C   0  0  0  1  0  0  0  0  0  0  0  0
   10.6430  -11.3086   -3.5674 H   0  0  0  1  0  0  0  0  0  0  0  0
   10.7231   -8.1965   -3.3451 C   0  0  0  1  0  0  0  0  0  0  0  0
    9.0319   -7.6288   -1.6735 N   0  0  0  1  0  0  0  0  0  0  0  0
    9.2000  -12.0261   -1.5780 O   0  0  0  1  0  0  0  0  0  0  0  0
    8.9127  -10.2645   -0.0952 C   0  0  0  1  0  0  0  0  0  0  0  0
    9.9086   -9.9325    0.1117 H   0  0  0  1  0  0  0  0  0  0  0  0
   11.2142   -9.3600   -3.9167 N   0  0  0  1  0  0  0  0  0  0  0  0
   11.0217   -6.8446   -3.4871 C   0  0  0  1  0  0  0  0  0  0  0  0
    9.4121   -6.3804   -1.9161 C   0  0  0  1  0  0  0  0  0  0  0  0
    8.9159   -5.6455   -1.3727 H   0  0  0  1  0  0  0  0  0  0  0  0
    9.1508  -12.6265   -0.2641 C   0  0  0  1  0  0  0  0  0  0  0  0
    8.5045  -13.4793   -0.2649 H   0  0  0  1  0  0  0  0  0  0  0  0
    8.5965  -11.5326    0.6534 C   0  0  0  1  0  0  0  0  0  0  0  0
    9.0835  -11.5476    1.6060 H   0  0  0  1  0  0  0  0  0  0  0  0
    7.9958   -9.2383    0.2303 O   0  0  0  1  0  0  0  0  0  0  0  0
    8.4560   -8.3964    0.2644 H   0  0  0  1  0  0  0  0  0  0  0  0
   10.3506   -5.9383   -2.7681 N   0  0  0  1  0  0  0  0  0  0  0  0
   11.9868   -6.3124   -4.3351 N   0  0  0  1  0  0  0  0  0  0  0  0
   12.1473   -5.3457   -4.3492 H   0  0  0  1  0  0  0  0  0  0  0  0
   12.5064   -6.9039   -4.9186 H   0  0  0  1  0  0  0  0  0  0  0  0
   10.5174  -13.0371    0.1760 C   0  0  0  1  0  0  0  0  0  0  0  0
   11.2064  -12.2327    0.0237 H   0  0  0  1  0  0  0  0  0  0  0  0
   10.8381  -13.8924   -0.3812 H   0  0  0  1  0  0  0  0  0  0  0  0
    7.1864  -11.6824    0.8359 O   0  0  0  1  0  0  0  0  0  0  0  0
    6.9320  -11.3118    1.6842 H   0  0  0  1  0  0  0  0  0  0  0  0
   10.4458  -13.3645    1.5837 O   0  0  0  1  0  0  0  0  0  0  0  0
   11.3478  -14.5823    2.2106 P   0  0  0  1  0  0  0  0  0  0  0  0
   11.3434  -14.4727    3.8285 O   0  0  0  1  0  0  0  0  0  0  0  0
   11.0577  -15.9908    1.8608 O   0  0  0  1  0  0  0  0  0  0  0  0
   12.9003  -14.3082    1.8375 O   0  5  0  1  0  0  0  0  0  0  0  0
   12.6225  -14.5909    4.7375 S   0  0  0  1  0  0  0  0  0  0  0  0
   12.0598  -14.2539    6.0149 O   0  0  0  1  0  0  0  0  0  0  0  0
   11.4399  -13.5283    5.9106 H   0  0  0  1  0  0  0  0  0  0  0  0
   13.0344  -15.9243    4.7008 O   0  0  0  1  0  0  0  0  0  0  0  0
   13.5828  -13.6324    4.3643 O   0  0  0  1  0  0  0  0  0  0  0  0
  1  2  1  0  0  0  0
  1  3  1  0  0  0  0
  1  5  1  0  0  0  0
  2  7  2  0  0  0  0
  2  8  1  0  0  0  0
  3  4  1  0  0  0  0
  3  9  1  0  0  0  0
  3 10  1  0  0  0  0
  5  6  1  0  0  0  0
  5 12  2  0  0  0  0
  7 12  1  0  0  0  0
  7 13  1  0  0  0  0
  8 14  2  0  0  0  0
  9 16  1  0  0  0  0
 10 11  1  0  0  0  0
 10 18  1  0  0  0  0
 10 20  1  0  0  0  0
 13 22  2  0  0  0  0
 13 23  1  0  0  0  0
 14 15  1  0  0  0  0
 14 22  1  0  0  0  0
 16 17  1  0  0  0  0
 16 18  1  0  0  0  0
 16 26  1  0  0  0  0
 18 19  1  0  0  0  0
 18 29  1  0  0  0  0
 20 21  1  0  0  0  0
 23 24  1  0  0  0  0
 23 25  1  0  0  0  0
 26 27  1  0  0  0  0
 26 28  1  0  0  0  0
 26 31  1  0  0  0  0
 29 30  1  0  0  0  0
 31 32  1  0  0  0  0
 32 33  1  0  0  0  0
 32 34  2  0  0  0  0
 32 35  1  0  0  0  0
 33 36  1  0  0  0  0
 36 37  1  0  0  0  0
 36 39  2  0  0  0  0
 36 40  2  0  0  0  0
 37 38  1  0  0  0  0
M  END
> <ConfClashScore>
0 

> <ConfOneFourInteractionScore>
-0.976957 

> <ConfScore>
-0.259202 

> <ConfScorePBest>
0.00850649 

> <ConfTolerance>
1.0907 

$$$$
ChEBI.****
  PyMOL2.5          3D                             0

 40 42  0  0  0  0  0  0  0  0999 V2000
    9.6213   -9.8536   -2.4234 N   0  0  0  1  0  0  0  0  0  0  0  0
    9.7269   -8.4867   -2.4060 C   0  0  0  1  0  0  0  0  0  0  0  0
    8.7466  -10.7200   -1.6483 C   0  0  0  1  0  0  0  0  0  0  0  0
    8.0299  -11.1775   -2.2979 H   0  0  0  1  0  0  0  0  0  0  0  0
   10.5283  -10.2817   -3.3437 C   0  0  0  1  0  0  0  0  0  0  0  0
   10.6612  -11.2877   -3.5717 H   0  0  0  1  0  0  0  0  0  0  0  0
   10.7249   -8.1760   -3.3394 C   0  0  0  1  0  0  0  0  0  0  0  0
    9.0425   -7.6237   -1.6539 N   0  0  0  1  0  0  0  0  0  0  0  0
    9.5132  -11.7228   -0.9565 O   0  0  0  1  0  0  0  0  0  0  0  0
    8.0510   -9.9350   -0.5614 C   0  0  0  1  0  0  0  0  0  0  0  0
    8.6836   -9.1627   -0.1761 H   0  0  0  1  0  0  0  0  0  0  0  0
   11.2186   -9.3346   -3.9184 N   0  0  0  1  0  0  0  0  0  0  0  0
   11.0146   -6.8219   -3.4789 C   0  0  0  1  0  0  0  0  0  0  0  0
    9.4137   -6.3723   -1.8949 C   0  0  0  1  0  0  0  0  0  0  0  0
    8.9171   -5.6421   -1.3455 H   0  0  0  1  0  0  0  0  0  0  0  0
    8.9924  -11.9019    0.3736 C   0  0  0  1  0  0  0  0  0  0  0  0
    8.7041  -12.9212    0.5248 H   0  0  0  1  0  0  0  0  0  0  0  0
    7.7854  -10.9939    0.4803 C   0  0  0  1  0  0  0  0  0  0  0  0
    7.7168  -10.5616    1.4567 H   0  0  0  1  0  0  0  0  0  0  0  0
    6.8329   -9.3606   -1.0372 O   0  0  0  1  0  0  0  0  0  0  0  0
    6.0873   -9.8429   -0.6724 H   0  0  0  1  0  0  0  0  0  0  0  0
   10.3435   -5.9219   -2.7520 N   0  0  0  1  0  0  0  0  0  0  0  0
   11.9701   -6.3466   -4.3380 N   0  0  0  1  0  0  0  0  0  0  0  0
   12.1441   -5.3838   -4.3933 H   0  0  0  1  0  0  0  0  0  0  0  0
   12.4797   -6.9695   -4.8972 H   0  0  0  1  0  0  0  0  0  0  0  0
   10.0196  -11.5187    1.3875 C   0  0  0  1  0  0  0  0  0  0  0  0
   10.2603  -10.4809    1.2881 H   0  0  0  1  0  0  0  0  0  0  0  0
   10.9039  -12.1052    1.2500 H   0  0  0  1  0  0  0  0  0  0  0  0
    6.5824  -11.7068    0.1889 O   0  0  0  1  0  0  0  0  0  0  0  0
    6.4194  -11.6871   -0.7569 H   0  0  0  1  0  0  0  0  0  0  0  0
    9.4594  -11.7713    2.6976 O   0  0  0  1  0  0  0  0  0  0  0  0
   10.3144  -11.4363    4.0564 P   0  0  0  1  0  0  0  0  0  0  0  0
   11.6661  -12.4247    4.1267 O   0  0  0  1  0  0  0  0  0  0  0  0
   10.4993   -9.9680    4.0665 O   0  0  0  1  0  0  0  0  0  0  0  0
    9.3186  -11.8959    5.2487 O   0  5  0  1  0  0  0  0  0  0  0  0
   12.1708  -13.8591    3.5096 S   0  0  0  1  0  0  0  0  0  0  0  0
   11.0873  -14.6756    3.9799 O   0  0  0  1  0  0  0  0  0  0  0  0
   10.8533  -14.4140    4.8734 H   0  0  0  1  0  0  0  0  0  0  0  0
   12.2342  -13.7255    2.0851 O   0  0  0  1  0  0  0  0  0  0  0  0
   13.3968  -14.1527    4.1348 O   0  0  0  1  0  0  0  0  0  0  0  0
  1  2  1  0  0  0  0
  1  3  1  0  0  0  0
  1  5  1  0  0  0  0
  2  7  2  0  0  0  0
  2  8  1  0  0  0  0
  3  4  1  0  0  0  0
  3  9  1  0  0  0  0
  3 10  1  0  0  0  0
  5  6  1  0  0  0  0
  5 12  2  0  0  0  0
  7 12  1  0  0  0  0
  7 13  1  0  0  0  0
  8 14  2  0  0  0  0
  9 16  1  0  0  0  0
 10 11  1  0  0  0  0
 10 18  1  0  0  0  0
 10 20  1  0  0  0  0
 13 22  2  0  0  0  0
 13 23  1  0  0  0  0
 14 15  1  0  0  0  0
 14 22  1  0  0  0  0
 16 17  1  0  0  0  0
 16 18  1  0  0  0  0
 16 26  1  0  0  0  0
 18 19  1  0  0  0  0
 18 29  1  0  0  0  0
 20 21  1  0  0  0  0
 23 24  1  0  0  0  0
 23 25  1  0  0  0  0
 26 27  1  0  0  0  0
 26 28  1  0  0  0  0
 26 31  1  0  0  0  0
 29 30  1  0  0  0  0
 31 32  1  0  0  0  0
 32 33  1  0  0  0  0
 32 34  2  0  0  0  0
 32 35  1  0  0  0  0
 33 36  1  0  0  0  0
 36 37  1  0  0  0  0
 36 39  2  0  0  0  0
 36 40  2  0  0  0  0
 37 38  1  0  0  0  0
M  END
> <ConfClashScore>
0 

> <ConfOneFourInteractionScore>
-0.979734 

> <ConfScore>
-0.258571 

> <ConfScorePBest>
0.00840348 

> <ConfTolerance>
1.15214 

$$$$
ChEBI.****
  PyMOL2.5          3D                             0

 40 42  0  0  0  0  0  0  0  0999 V2000
    9.6217   -9.8487   -2.4166 N   0  0  0  1  0  0  0  0  0  0  0  0
    9.7256   -8.4817   -2.4044 C   0  0  0  1  0  0  0  0  0  0  0  0
    8.7554  -10.7636   -1.6528 C   0  0  0  1  0  0  0  0  0  0  0  0
    7.7426  -10.6527   -1.9797 H   0  0  0  1  0  0  0  0  0  0  0  0
   10.5310  -10.2795   -3.3333 C   0  0  0  1  0  0  0  0  0  0  0  0
   10.6655  -11.2862   -3.5570 H   0  0  0  1  0  0  0  0  0  0  0  0
   10.7252   -8.1735   -3.3370 C   0  0  0  1  0  0  0  0  0  0  0  0
    9.0386   -7.6164   -1.6572 N   0  0  0  1  0  0  0  0  0  0  0  0
    9.1940  -12.1313   -1.8150 O   0  0  0  1  0  0  0  0  0  0  0  0
    8.8694  -10.4839   -0.1513 C   0  0  0  1  0  0  0  0  0  0  0  0
    9.7937   -9.9965    0.0791 H   0  0  0  1  0  0  0  0  0  0  0  0
   11.2215   -9.3339   -3.9103 N   0  0  0  1  0  0  0  0  0  0  0  0
   11.0137   -6.8197   -3.4813 C   0  0  0  1  0  0  0  0  0  0  0  0
    9.4089   -6.3655   -1.9025 C   0  0  0  1  0  0  0  0  0  0  0  0
    8.9104   -5.6337   -1.3571 H   0  0  0  1  0  0  0  0  0  0  0  0
    9.5363  -12.7211   -0.5903 C   0  0  0  1  0  0  0  0  0  0  0  0
    9.1938  -13.7339   -0.5484 H   0  0  0  1  0  0  0  0  0  0  0  0
    8.8177  -11.8601    0.4586 C   0  0  0  1  0  0  0  0  0  0  0  0
    9.3318  -11.8858    1.3967 H   0  0  0  1  0  0  0  0  0  0  0  0
    7.7800   -9.6803    0.3043 O   0  0  0  1  0  0  0  0  0  0  0  0
    6.9510  -10.0794    0.0304 H   0  0  0  1  0  0  0  0  0  0  0  0
   10.3400   -5.9176   -2.7595 N   0  0  0  1  0  0  0  0  0  0  0  0
   11.9704   -6.3468   -4.3403 N   0  0  0  1  0  0  0  0  0  0  0  0
   12.1979   -5.3935   -4.3436 H   0  0  0  1  0  0  0  0  0  0  0  0
   12.4273   -6.9617   -4.9515 H   0  0  0  1  0  0  0  0  0  0  0  0
   11.0145  -12.6857   -0.3810 C   0  0  0  1  0  0  0  0  0  0  0  0
   11.5054  -13.2385   -1.1545 H   0  0  0  1  0  0  0  0  0  0  0  0
   11.2580  -13.1098    0.5708 H   0  0  0  1  0  0  0  0  0  0  0  0
    7.4682  -12.2917    0.6424 O   0  0  0  1  0  0  0  0  0  0  0  0
    6.9865  -11.6318    1.1466 H   0  0  0  1  0  0  0  0  0  0  0  0
   11.4284  -11.3108   -0.4242 O   0  0  0  1  0  0  0  0  0  0  0  0
   12.9824  -10.7900   -0.4833 P   0  0  0  1  0  0  0  0  0  0  0  0
   13.1349   -9.3127    0.2934 O   0  0  0  1  0  0  0  0  0  0  0  0
   13.8195  -11.8766    0.0726 O   0  0  0  1  0  0  0  0  0  0  0  0
   13.3345  -10.5052   -2.0388 O   0  5  0  1  0  0  0  0  0  0  0  0
   12.6493   -7.8037    0.0961 S   0  0  0  1  0  0  0  0  0  0  0  0
   11.2455   -7.8644   -0.2479 O   0  0  0  1  0  0  0  0  0  0  0  0
   10.8860   -6.9750   -0.2851 H   0  0  0  1  0  0  0  0  0  0  0  0
   12.8677   -7.1397    1.3497 O   0  0  0  1  0  0  0  0  0  0  0  0
   13.4968   -7.3572   -0.9743 O   0  0  0  1  0  0  0  0  0  0  0  0
  1  2  1  0  0  0  0
  1  3  1  0  0  0  0
  1  5  1  0  0  0  0
  2  7  2  0  0  0  0
  2  8  1  0  0  0  0
  3  4  1  0  0  0  0
  3  9  1  0  0  0  0
  3 10  1  0  0  0  0
  5  6  1  0  0  0  0
  5 12  2  0  0  0  0
  7 12  1  0  0  0  0
  7 13  1  0  0  0  0
  8 14  2  0  0  0  0
  9 16  1  0  0  0  0
 10 11  1  0  0  0  0
 10 18  1  0  0  0  0
 10 20  1  0  0  0  0
 13 22  2  0  0  0  0
 13 23  1  0  0  0  0
 14 15  1  0  0  0  0
 14 22  1  0  0  0  0
 16 17  1  0  0  0  0
 16 18  1  0  0  0  0
 16 26  1  0  0  0  0
 18 19  1  0  0  0  0
 18 29  1  0  0  0  0
 20 21  1  0  0  0  0
 23 24  1  0  0  0  0
 23 25  1  0  0  0  0
 26 27  1  0  0  0  0
 26 28  1  0  0  0  0
 26 31  1  0  0  0  0
 29 30  1  0  0  0  0
 31 32  1  0  0  0  0
 32 33  1  0  0  0  0
 32 34  2  0  0  0  0
 32 35  1  0  0  0  0
 33 36  1  0  0  0  0
 36 37  1  0  0  0  0
 36 39  2  0  0  0  0
 36 40  2  0  0  0  0
 37 38  1  0  0  0  0
M  END
> <ConfClashScore>
0 

> <ConfOneFourInteractionScore>
-0.988194 

> <ConfScore>
-0.249769 

> <ConfScorePBest>
0.00830048 

> <ConfTolerance>
1.09949 

$$$$
ChEBI.****
  PyMOL2.5          3D                             0

 40 42  0  0  0  0  0  0  0  0999 V2000
    9.6491   -9.8457   -2.4550 N   0  0  0  1  0  0  0  0  0  0  0  0
    9.7337   -8.4780   -2.4128 C   0  0  0  1  0  0  0  0  0  0  0  0
    8.7175  -10.6065   -1.6173 C   0  0  0  1  0  0  0  0  0  0  0  0
    8.9953  -10.5026   -0.5892 H   0  0  0  1  0  0  0  0  0  0  0  0
   10.5635  -10.2433   -3.3816 C   0  0  0  1  0  0  0  0  0  0  0  0
   10.7121  -11.2428   -3.6275 H   0  0  0  1  0  0  0  0  0  0  0  0
   10.7278   -8.1352   -3.3390 C   0  0  0  1  0  0  0  0  0  0  0  0
    9.0352   -7.6392   -1.6462 N   0  0  0  1  0  0  0  0  0  0  0  0
    7.3450  -10.1563   -1.8301 O   0  0  0  1  0  0  0  0  0  0  0  0
    8.6999  -12.0625   -2.0225 C   0  0  0  1  0  0  0  0  0  0  0  0
    9.6607  -12.3723   -2.3773 H   0  0  0  1  0  0  0  0  0  0  0  0
   11.2399   -9.2755   -3.9381 N   0  0  0  1  0  0  0  0  0  0  0  0
   10.9969   -6.7745   -3.4536 C   0  0  0  1  0  0  0  0  0  0  0  0
    9.3874   -6.3781   -1.8641 C   0  0  0  1  0  0  0  0  0  0  0  0
    8.8791   -5.6657   -1.3023 H   0  0  0  1  0  0  0  0  0  0  0  0
    6.6999  -10.9684   -2.7702 C   0  0  0  1  0  0  0  0  0  0  0  0
    5.8042  -11.3727   -2.3470 H   0  0  0  1  0  0  0  0  0  0  0  0
    7.6587  -12.1083   -3.1489 C   0  0  0  1  0  0  0  0  0  0  0  0
    8.1127  -11.9299   -4.1012 H   0  0  0  1  0  0  0  0  0  0  0  0
    8.3053  -12.8920   -0.9287 O   0  0  0  1  0  0  0  0  0  0  0  0
    7.9483  -13.7173   -1.2649 H   0  0  0  1  0  0  0  0  0  0  0  0
   10.3112   -5.8982   -2.7116 N   0  0  0  1  0  0  0  0  0  0  0  0
   11.9666   -6.4295   -4.3388 N   0  0  0  1  0  0  0  0  0  0  0  0
   12.4311   -7.1233   -4.8518 H   0  0  0  1  0  0  0  0  0  0  0  0
   12.2020   -5.4866   -4.4648 H   0  0  0  1  0  0  0  0  0  0  0  0
    6.3604  -10.1673   -3.9839 C   0  0  0  1  0  0  0  0  0  0  0  0
    5.7604  -10.7515   -4.6499 H   0  0  0  1  0  0  0  0  0  0  0  0
    7.2570   -9.8647   -4.4833 H   0  0  0  1  0  0  0  0  0  0  0  0
    6.9804  -13.3651   -3.1720 O   0  0  0  1  0  0  0  0  0  0  0  0
    7.4470  -13.9704   -3.7529 H   0  0  0  1  0  0  0  0  0  0  0  0
    5.6267   -9.0104   -3.5517 O   0  0  0  1  0  0  0  0  0  0  0  0
    4.9896   -7.8679   -4.5409 P   0  0  0  1  0  0  0  0  0  0  0  0
    4.6193   -6.5801   -3.6276 O   0  0  0  1  0  0  0  0  0  0  0  0
    5.9604   -7.4864   -5.5910 O   0  0  0  1  0  0  0  0  0  0  0  0
    3.6397   -8.4323   -5.2363 O   0  5  0  1  0  0  0  0  0  0  0  0
    3.3245   -6.4879   -2.6263 S   0  0  0  1  0  0  0  0  0  0  0  0
    2.2241   -6.0519   -3.4238 O   0  0  0  1  0  0  0  0  0  0  0  0
    1.4595   -6.6040   -3.2441 H   0  0  0  1  0  0  0  0  0  0  0  0
    3.1420   -7.7673   -2.0259 O   0  0  0  1  0  0  0  0  0  0  0  0
    3.8390   -5.5004   -1.7479 O   0  0  0  1  0  0  0  0  0  0  0  0
  1  2  1  0  0  0  0
  1  3  1  0  0  0  0
  1  5  1  0  0  0  0
  2  7  2  0  0  0  0
  2  8  1  0  0  0  0
  3  4  1  0  0  0  0
  3  9  1  0  0  0  0
  3 10  1  0  0  0  0
  5  6  1  0  0  0  0
  5 12  2  0  0  0  0
  7 12  1  0  0  0  0
  7 13  1  0  0  0  0
  8 14  2  0  0  0  0
  9 16  1  0  0  0  0
 10 11  1  0  0  0  0
 10 18  1  0  0  0  0
 10 20  1  0  0  0  0
 13 22  2  0  0  0  0
 13 23  1  0  0  0  0
 14 15  1  0  0  0  0
 14 22  1  0  0  0  0
 16 17  1  0  0  0  0
 16 18  1  0  0  0  0
 16 26  1  0  0  0  0
 18 19  1  0  0  0  0
 18 29  1  0  0  0  0
 20 21  1  0  0  0  0
 23 24  1  0  0  0  0
 23 25  1  0  0  0  0
 26 27  1  0  0  0  0
 26 28  1  0  0  0  0
 26 31  1  0  0  0  0
 29 30  1  0  0  0  0
 31 32  1  0  0  0  0
 32 33  1  0  0  0  0
 32 34  2  0  0  0  0
 32 35  1  0  0  0  0
 33 36  1  0  0  0  0
 36 37  1  0  0  0  0
 36 39  2  0  0  0  0
 36 40  2  0  0  0  0
 37 38  1  0  0  0  0
M  END
> <ConfClashScore>
0 

> <ConfOneFourInteractionScore>
-0.979734 

> <ConfScore>
-0.248271 

> <ConfScorePBest>
0.00819748 

> <ConfTolerance>
1.04665 

$$$$
ChEBI.****
  PyMOL2.5          3D                             0

 40 42  0  0  0  0  0  0  0  0999 V2000
    9.6068   -9.8661   -2.4086 N   0  0  0  1  0  0  0  0  0  0  0  0
    9.7247   -8.5002   -2.4052 C   0  0  0  1  0  0  0  0  0  0  0  0
    8.7194  -10.7215   -1.6200 C   0  0  0  1  0  0  0  0  0  0  0  0
    7.7009  -10.4703   -1.8308 H   0  0  0  1  0  0  0  0  0  0  0  0
   10.5096  -10.3119   -3.3246 C   0  0  0  1  0  0  0  0  0  0  0  0
   10.6334  -11.3213   -3.5423 H   0  0  0  1  0  0  0  0  0  0  0  0
   10.7252   -8.2081   -3.3420 C   0  0  0  1  0  0  0  0  0  0  0  0
    9.0482   -7.6234   -1.6620 N   0  0  0  1  0  0  0  0  0  0  0  0
    8.9581  -12.0686   -1.9103 O   0  0  0  1  0  0  0  0  0  0  0  0
    9.0114  -10.5558   -0.1202 C   0  0  0  1  0  0  0  0  0  0  0  0
    9.3343   -9.5603    0.1026 H   0  0  0  1  0  0  0  0  0  0  0  0
   11.2083   -9.3770   -3.9091 N   0  0  0  1  0  0  0  0  0  0  0  0
   11.0271   -6.8581   -3.4954 C   0  0  0  1  0  0  0  0  0  0  0  0
    9.4306   -6.3779   -1.9159 C   0  0  0  1  0  0  0  0  0  0  0  0
    8.9408   -5.6376   -1.3740 H   0  0  0  1  0  0  0  0  0  0  0  0
    9.8127  -12.6685   -0.9205 C   0  0  0  1  0  0  0  0  0  0  0  0
    9.3118  -13.4860   -0.4453 H   0  0  0  1  0  0  0  0  0  0  0  0
   10.1273  -11.5590    0.1131 C   0  0  0  1  0  0  0  0  0  0  0  0
   11.0852  -11.1198   -0.0725 H   0  0  0  1  0  0  0  0  0  0  0  0
    7.8618  -10.8715    0.6666 O   0  0  0  1  0  0  0  0  0  0  0  0
    8.0911  -10.8349    1.5981 H   0  0  0  1  0  0  0  0  0  0  0  0
   10.3642   -5.9448   -2.7778 N   0  0  0  1  0  0  0  0  0  0  0  0
   11.9818   -6.2906   -4.3443 N   0  0  0  1  0  0  0  0  0  0  0  0
   12.1171   -5.3200   -4.3502 H   0  0  0  1  0  0  0  0  0  0  0  0
   12.5160   -6.8634   -4.9334 H   0  0  0  1  0  0  0  0  0  0  0  0
   11.0736  -13.1569   -1.5542 C   0  0  0  1  0  0  0  0  0  0  0  0
   11.6357  -12.3288   -1.9326 H   0  0  0  1  0  0  0  0  0  0  0  0
   10.8428  -13.8278   -2.3551 H   0  0  0  1  0  0  0  0  0  0  0  0
   10.0879  -12.0714    1.4458 O   0  0  0  1  0  0  0  0  0  0  0  0
    9.3145  -12.6302    1.5515 H   0  0  0  1  0  0  0  0  0  0  0  0
   11.8374  -13.8475   -0.5375 O   0  0  0  1  0  0  0  0  0  0  0  0
   13.1730  -14.7392   -0.8700 P   0  0  0  1  0  0  0  0  0  0  0  0
   14.3265  -13.6405   -1.3908 O   0  0  0  1  0  0  0  0  0  0  0  0
   13.6809  -15.5951    0.2254 O   0  0  0  1  0  0  0  0  0  0  0  0
   12.8948  -15.7543   -2.1015 O   0  5  0  1  0  0  0  0  0  0  0  0
   15.9783  -13.4660   -1.3618 S   0  0  0  1  0  0  0  0  0  0  0  0
   16.2382  -14.4243   -0.2503 O   0  0  0  1  0  0  0  0  0  0  0  0
   16.9078  -14.0625    0.3348 H   0  0  0  1  0  0  0  0  0  0  0  0
   16.4463  -13.7936   -2.5791 O   0  0  0  1  0  0  0  0  0  0  0  0
   16.1251  -12.1758   -0.7871 O   0  0  0  1  0  0  0  0  0  0  0  0
  1  2  1  0  0  0  0
  1  3  1  0  0  0  0
  1  5  1  0  0  0  0
  2  7  2  0  0  0  0
  2  8  1  0  0  0  0
  3  4  1  0  0  0  0
  3  9  1  0  0  0  0
  3 10  1  0  0  0  0
  5  6  1  0  0  0  0
  5 12  2  0  0  0  0
  7 12  1  0  0  0  0
  7 13  1  0  0  0  0
  8 14  2  0  0  0  0
  9 16  1  0  0  0  0
 10 11  1  0  0  0  0
 10 18  1  0  0  0  0
 10 20  1  0  0  0  0
 13 22  2  0  0  0  0
 13 23  1  0  0  0  0
 14 15  1  0  0  0  0
 14 22  1  0  0  0  0
 16 17  1  0  0  0  0
 16 18  1  0  0  0  0
 16 26  1  0  0  0  0
 18 19  1  0  0  0  0
 18 29  1  0  0  0  0
 20 21  1  0  0  0  0
 23 24  1  0  0  0  0
 23 25  1  0  0  0  0
 26 27  1  0  0  0  0
 26 28  1  0  0  0  0
 26 31  1  0  0  0  0
 29 30  1  0  0  0  0
 31 32  1  0  0  0  0
 32 33  1  0  0  0  0
 32 34  2  0  0  0  0
 32 35  1  0  0  0  0
 33 36  1  0  0  0  0
 36 37  1  0  0  0  0
 36 39  2  0  0  0  0
 36 40  2  0  0  0  0
 37 38  1  0  0  0  0
M  END
> <ConfClashScore>
0 

> <ConfOneFourInteractionScore>
-0.982003 

> <ConfScore>
-0.248227 

> <ConfScorePBest>
0.00809448 

> <ConfTolerance>
0.905297 

$$$$
ChEBI.****
  PyMOL2.5          3D                             0

 40 42  0  0  0  0  0  0  0  0999 V2000
    9.6394   -9.8465   -2.4419 N   0  0  0  1  0  0  0  0  0  0  0  0
    9.7296   -8.4788   -2.4083 C   0  0  0  1  0  0  0  0  0  0  0  0
    8.7390  -10.6993   -1.6415 C   0  0  0  1  0  0  0  0  0  0  0  0
    8.4005  -11.5204   -2.2384 H   0  0  0  1  0  0  0  0  0  0  0  0
   10.5521  -10.2536   -3.3660 C   0  0  0  1  0  0  0  0  0  0  0  0
   10.6966  -11.2553   -3.6056 H   0  0  0  1  0  0  0  0  0  0  0  0
   10.7250   -8.1460   -3.3368 C   0  0  0  1  0  0  0  0  0  0  0  0
    9.0346   -7.6324   -1.6470 N   0  0  0  1  0  0  0  0  0  0  0  0
    9.4269  -11.1866   -0.4742 O   0  0  0  1  0  0  0  0  0  0  0  0
    7.5550   -9.8897   -1.1498 C   0  0  0  1  0  0  0  0  0  0  0  0
    7.3940   -9.0295   -1.7655 H   0  0  0  1  0  0  0  0  0  0  0  0
   11.2324   -9.2922   -3.9287 N   0  0  0  1  0  0  0  0  0  0  0  0
   10.9997   -6.7872   -3.4600 C   0  0  0  1  0  0  0  0  0  0  0  0
    9.3920   -6.3742   -1.8729 C   0  0  0  1  0  0  0  0  0  0  0  0
    8.8867   -5.6561   -1.3156 H   0  0  0  1  0  0  0  0  0  0  0  0
    8.7607  -10.7121    0.7012 C   0  0  0  1  0  0  0  0  0  0  0  0
    8.0968  -11.4592    1.0833 H   0  0  0  1  0  0  0  0  0  0  0  0
    7.9817   -9.4872    0.2518 C   0  0  0  1  0  0  0  0  0  0  0  0
    8.6019   -8.6154    0.2352 H   0  0  0  1  0  0  0  0  0  0  0  0
    6.3672  -10.6824   -1.1181 O   0  0  0  1  0  0  0  0  0  0  0  0
    5.8718  -10.4857   -0.3197 H   0  0  0  1  0  0  0  0  0  0  0  0
   10.3177   -5.9034   -2.7236 N   0  0  0  1  0  0  0  0  0  0  0  0
   11.9711   -6.3930   -4.3420 N   0  0  0  1  0  0  0  0  0  0  0  0
   12.1840   -5.4418   -4.4435 H   0  0  0  1  0  0  0  0  0  0  0  0
   12.4532   -7.0622   -4.8713 H   0  0  0  1  0  0  0  0  0  0  0  0
    9.7545  -10.3433    1.7531 C   0  0  0  1  0  0  0  0  0  0  0  0
   10.3505  -11.1952    2.0060 H   0  0  0  1  0  0  0  0  0  0  0  0
    9.2468   -9.9906    2.6264 H   0  0  0  1  0  0  0  0  0  0  0  0
    6.8512   -9.2523    1.0926 O   0  0  0  1  0  0  0  0  0  0  0  0
    6.0873   -9.0414    0.5509 H   0  0  0  1  0  0  0  0  0  0  0  0
   10.5954   -9.2958    1.2151 O   0  0  0  1  0  0  0  0  0  0  0  0
   11.8541   -8.6438    2.0398 P   0  0  0  1  0  0  0  0  0  0  0  0
   12.5748   -7.4338    1.1313 O   0  0  0  1  0  0  0  0  0  0  0  0
   11.3682   -8.3340    3.4030 O   0  0  0  1  0  0  0  0  0  0  0  0
   12.9334   -9.8383    2.2202 O   0  5  0  1  0  0  0  0  0  0  0  0
   13.3807   -6.1183    1.3693 S   0  0  0  1  0  0  0  0  0  0  0  0
   14.7150   -6.4936    1.7443 O   0  0  0  1  0  0  0  0  0  0  0  0
   15.1617   -5.7398    2.1363 H   0  0  0  1  0  0  0  0  0  0  0  0
   13.4207   -5.3668    0.1564 O   0  0  0  1  0  0  0  0  0  0  0  0
   12.6718   -5.4952    2.4360 O   0  0  0  1  0  0  0  0  0  0  0  0
  1  2  1  0  0  0  0
  1  3  1  0  0  0  0
  1  5  1  0  0  0  0
  2  7  2  0  0  0  0
  2  8  1  0  0  0  0
  3  4  1  0  0  0  0
  3  9  1  0  0  0  0
  3 10  1  0  0  0  0
  5  6  1  0  0  0  0
  5 12  2  0  0  0  0
  7 12  1  0  0  0  0
  7 13  1  0  0  0  0
  8 14  2  0  0  0  0
  9 16  1  0  0  0  0
 10 11  1  0  0  0  0
 10 18  1  0  0  0  0
 10 20  1  0  0  0  0
 13 22  2  0  0  0  0
 13 23  1  0  0  0  0
 14 15  1  0  0  0  0
 14 22  1  0  0  0  0
 16 17  1  0  0  0  0
 16 18  1  0  0  0  0
 16 26  1  0  0  0  0
 18 19  1  0  0  0  0
 18 29  1  0  0  0  0
 20 21  1  0  0  0  0
 23 24  1  0  0  0  0
 23 25  1  0  0  0  0
 26 27  1  0  0  0  0
 26 28  1  0  0  0  0
 26 31  1  0  0  0  0
 29 30  1  0  0  0  0
 31 32  1  0  0  0  0
 32 33  1  0  0  0  0
 32 34  2  0  0  0  0
 32 35  1  0  0  0  0
 33 36  1  0  0  0  0
 36 37  1  0  0  0  0
 36 39  2  0  0  0  0
 36 40  2  0  0  0  0
 37 38  1  0  0  0  0
M  END
> <ConfClashScore>
4.61354e-05 

> <ConfOneFourInteractionScore>
-0.983876 

> <ConfScore>
-0.248197 

> <ConfScorePBest>
0.00799148 

> <ConfTolerance>
1.13683 

$$$$
ChEBI.****
  PyMOL2.5          3D                             0

 40 42  0  0  0  0  0  0  0  0999 V2000
    9.6178   -9.8752   -2.4223 N   0  0  0  1  0  0  0  0  0  0  0  0
    9.7299   -8.5088   -2.4112 C   0  0  0  1  0  0  0  0  0  0  0  0
    8.7068  -10.6988   -1.6084 C   0  0  0  1  0  0  0  0  0  0  0  0
    8.6213  -11.6883   -2.0065 H   0  0  0  1  0  0  0  0  0  0  0  0
   10.5225  -10.3119   -3.3407 C   0  0  0  1  0  0  0  0  0  0  0  0
   10.6506  -11.3195   -3.5641 H   0  0  0  1  0  0  0  0  0  0  0  0
   10.7291   -8.2071   -3.3463 C   0  0  0  1  0  0  0  0  0  0  0  0
    9.0497   -7.6390   -1.6631 N   0  0  0  1  0  0  0  0  0  0  0  0
    9.2337  -10.6921   -0.3094 O   0  0  0  1  0  0  0  0  0  0  0  0
    7.3164  -10.0651   -1.4563 C   0  0  0  1  0  0  0  0  0  0  0  0
    7.3729   -8.9972   -1.4949 H   0  0  0  1  0  0  0  0  0  0  0  0
   11.2172   -9.3708   -3.9200 N   0  0  0  1  0  0  0  0  0  0  0  0
   11.0252   -6.8551   -3.4922 C   0  0  0  1  0  0  0  0  0  0  0  0
    9.4268   -6.3905   -1.9100 C   0  0  0  1  0  0  0  0  0  0  0  0
    8.9338   -5.6554   -1.3639 H   0  0  0  1  0  0  0  0  0  0  0  0
    8.1988  -10.5791    0.6934 C   0  0  0  1  0  0  0  0  0  0  0  0
    8.2174  -11.4244    1.3491 H   0  0  0  1  0  0  0  0  0  0  0  0
    6.8850  -10.5371   -0.0926 C   0  0  0  1  0  0  0  0  0  0  0  0
    6.1945   -9.8504    0.3505 H   0  0  0  1  0  0  0  0  0  0  0  0
    6.4240  -10.5322   -2.4690 O   0  0  0  1  0  0  0  0  0  0  0  0
    6.9134  -10.6889   -3.2799 H   0  0  0  1  0  0  0  0  0  0  0  0
   10.3585   -5.9486   -2.7694 N   0  0  0  1  0  0  0  0  0  0  0  0
   11.9726   -6.2818   -4.3334 N   0  0  0  1  0  0  0  0  0  0  0  0
   12.5389   -6.8520   -4.8942 H   0  0  0  1  0  0  0  0  0  0  0  0
   12.0739   -5.3075   -4.3654 H   0  0  0  1  0  0  0  0  0  0  0  0
    8.3741   -9.3274    1.4887 C   0  0  0  1  0  0  0  0  0  0  0  0
    8.2065   -8.4735    0.8660 H   0  0  0  1  0  0  0  0  0  0  0  0
    9.3647   -9.2870    1.8913 H   0  0  0  1  0  0  0  0  0  0  0  0
    6.2950  -11.8203   -0.1632 O   0  0  0  1  0  0  0  0  0  0  0  0
    5.8937  -11.9414   -1.0269 H   0  0  0  1  0  0  0  0  0  0  0  0
    7.4190   -9.3504    2.5493 O   0  0  0  1  0  0  0  0  0  0  0  0
    7.2002   -8.2561    3.7510 P   0  0  0  1  0  0  0  0  0  0  0  0
    5.7261   -8.6081    4.4666 O   0  0  0  1  0  0  0  0  0  0  0  0
    8.3153   -8.4559    4.7034 O   0  0  0  1  0  0  0  0  0  0  0  0
    7.0568   -6.7595    3.1475 O   0  5  0  1  0  0  0  0  0  0  0  0
    4.5024   -9.6217    4.2547 S   0  0  0  1  0  0  0  0  0  0  0  0
    5.0789  -10.9336    4.0351 O   0  0  0  1  0  0  0  0  0  0  0  0
    4.6624  -11.5689    4.6220 H   0  0  0  1  0  0  0  0  0  0  0  0
    3.8315   -9.5030    5.5143 O   0  0  0  1  0  0  0  0  0  0  0  0
    3.7524   -9.1480    3.1194 O   0  0  0  1  0  0  0  0  0  0  0  0
  1  2  1  0  0  0  0
  1  3  1  0  0  0  0
  1  5  1  0  0  0  0
  2  7  2  0  0  0  0
  2  8  1  0  0  0  0
  3  4  1  0  0  0  0
  3  9  1  0  0  0  0
  3 10  1  0  0  0  0
  5  6  1  0  0  0  0
  5 12  2  0  0  0  0
  7 12  1  0  0  0  0
  7 13  1  0  0  0  0
  8 14  2  0  0  0  0
  9 16  1  0  0  0  0
 10 11  1  0  0  0  0
 10 18  1  0  0  0  0
 10 20  1  0  0  0  0
 13 22  2  0  0  0  0
 13 23  1  0  0  0  0
 14 15  1  0  0  0  0
 14 22  1  0  0  0  0
 16 17  1  0  0  0  0
 16 18  1  0  0  0  0
 16 26  1  0  0  0  0
 18 19  1  0  0  0  0
 18 29  1  0  0  0  0
 20 21  1  0  0  0  0
 23 24  1  0  0  0  0
 23 25  1  0  0  0  0
 26 27  1  0  0  0  0
 26 28  1  0  0  0  0
 26 31  1  0  0  0  0
 29 30  1  0  0  0  0
 31 32  1  0  0  0  0
 32 33  1  0  0  0  0
 32 34  2  0  0  0  0
 32 35  1  0  0  0  0
 33 36  1  0  0  0  0
 36 37  1  0  0  0  0
 36 39  2  0  0  0  0
 36 40  2  0  0  0  0
 37 38  1  0  0  0  0
M  END
> <ConfClashScore>
0 

> <ConfOneFourInteractionScore>
-0.977686 

> <ConfScore>
-0.247403 

> <ConfScorePBest>
0.00788848 

> <ConfTolerance>
1.14211 

$$$$
ChEBI.****
  PyMOL2.5          3D                             0

 40 42  0  0  0  0  0  0  0  0999 V2000
    9.6273   -9.8592   -2.4318 N   0  0  0  1  0  0  0  0  0  0  0  0
    9.7301   -8.4922   -2.4102 C   0  0  0  1  0  0  0  0  0  0  0  0
    8.7198  -10.6967   -1.6232 C   0  0  0  1  0  0  0  0  0  0  0  0
    8.5854  -10.2506   -0.6600 H   0  0  0  1  0  0  0  0  0  0  0  0
   10.5352  -10.2827   -3.3532 C   0  0  0  1  0  0  0  0  0  0  0  0
   10.6701  -11.2877   -3.5844 H   0  0  0  1  0  0  0  0  0  0  0  0
   10.7277   -8.1766   -3.3425 C   0  0  0  1  0  0  0  0  0  0  0  0
    9.0439   -7.6328   -1.6556 N   0  0  0  1  0  0  0  0  0  0  0  0
    7.4874  -10.8614   -2.2705 O   0  0  0  1  0  0  0  0  0  0  0  0
    9.2710  -12.1237   -1.4897 C   0  0  0  1  0  0  0  0  0  0  0  0
    9.7880  -12.4222   -2.3777 H   0  0  0  1  0  0  0  0  0  0  0  0
   11.2238   -9.3326   -3.9249 N   0  0  0  1  0  0  0  0  0  0  0  0
   11.0148   -6.8216   -3.4777 C   0  0  0  1  0  0  0  0  0  0  0  0
    9.4127   -6.3800   -1.8927 C   0  0  0  1  0  0  0  0  0  0  0  0
    8.9146   -5.6524   -1.3412 H   0  0  0  1  0  0  0  0  0  0  0  0
    6.9826  -12.2093   -2.1377 C   0  0  0  1  0  0  0  0  0  0  0  0
    6.0310  -12.2075   -1.6485 H   0  0  0  1  0  0  0  0  0  0  0  0
    8.0234  -12.9426   -1.2864 C   0  0  0  1  0  0  0  0  0  0  0  0
    8.1627  -13.9461   -1.6306 H   0  0  0  1  0  0  0  0  0  0  0  0
   10.1392  -12.2329   -0.3788 O   0  0  0  1  0  0  0  0  0  0  0  0
   10.6877  -11.4471   -0.3222 H   0  0  0  1  0  0  0  0  0  0  0  0
   10.3417   -5.9252   -2.7483 N   0  0  0  1  0  0  0  0  0  0  0  0
   11.9695   -6.3418   -4.3352 N   0  0  0  1  0  0  0  0  0  0  0  0
   12.5029   -6.9641   -4.8724 H   0  0  0  1  0  0  0  0  0  0  0  0
   12.1190   -5.3763   -4.4113 H   0  0  0  1  0  0  0  0  0  0  0  0
    6.8528  -12.8548   -3.4781 C   0  0  0  1  0  0  0  0  0  0  0  0
    6.3463  -12.1961   -4.1522 H   0  0  0  1  0  0  0  0  0  0  0  0
    6.3028  -13.7685   -3.3908 H   0  0  0  1  0  0  0  0  0  0  0  0
    7.6401  -12.9593    0.0894 O   0  0  0  1  0  0  0  0  0  0  0  0
    7.0340  -12.2351    0.2621 H   0  0  0  1  0  0  0  0  0  0  0  0
    8.1884  -13.1279   -3.9657 O   0  0  0  1  0  0  0  0  0  0  0  0
    8.4224  -13.8151   -5.4363 P   0  0  0  1  0  0  0  0  0  0  0  0
    7.9079  -12.7945   -6.5866 O   0  0  0  1  0  0  0  0  0  0  0  0
    9.8265  -14.1799   -5.7289 O   0  0  0  1  0  0  0  0  0  0  0  0
    7.4300  -15.0751   -5.6641 O   0  5  0  1  0  0  0  0  0  0  0  0
    6.6043  -13.0517   -7.5468 S   0  0  0  1  0  0  0  0  0  0  0  0
    6.8331  -12.1361   -8.6150 O   0  0  0  1  0  0  0  0  0  0  0  0
    7.5193  -12.4809   -9.1912 H   0  0  0  1  0  0  0  0  0  0  0  0
    6.8285  -14.4227   -7.7919 O   0  0  0  1  0  0  0  0  0  0  0  0
    5.3827  -12.7985   -6.8611 O   0  0  0  1  0  0  0  0  0  0  0  0
  1  2  1  0  0  0  0
  1  3  1  0  0  0  0
  1  5  1  0  0  0  0
  2  7  2  0  0  0  0
  2  8  1  0  0  0  0
  3  4  1  0  0  0  0
  3  9  1  0  0  0  0
  3 10  1  0  0  0  0
  5  6  1  0  0  0  0
  5 12  2  0  0  0  0
  7 12  1  0  0  0  0
  7 13  1  0  0  0  0
  8 14  2  0  0  0  0
  9 16  1  0  0  0  0
 10 11  1  0  0  0  0
 10 18  1  0  0  0  0
 10 20  1  0  0  0  0
 13 22  2  0  0  0  0
 13 23  1  0  0  0  0
 14 15  1  0  0  0  0
 14 22  1  0  0  0  0
 16 17  1  0  0  0  0
 16 18  1  0  0  0  0
 16 26  1  0  0  0  0
 18 19  1  0  0  0  0
 18 29  1  0  0  0  0
 20 21  1  0  0  0  0
 23 24  1  0  0  0  0
 23 25  1  0  0  0  0
 26 27  1  0  0  0  0
 26 28  1  0  0  0  0
 26 31  1  0  0  0  0
 29 30  1  0  0  0  0
 31 32  1  0  0  0  0
 32 33  1  0  0  0  0
 32 34  2  0  0  0  0
 32 35  1  0  0  0  0
 33 36  1  0  0  0  0
 36 37  1  0  0  0  0
 36 39  2  0  0  0  0
 36 40  2  0  0  0  0
 37 38  1  0  0  0  0
M  END
> <ConfClashScore>
0 

> <ConfOneFourInteractionScore>
-0.970394 

> <ConfScore>
-0.24651 

> <ConfScorePBest>
0.00778548 

> <ConfTolerance>
1.14566 

$$$$
ChEBI.****
  PyMOL2.5          3D                             0

 40 42  0  0  0  0  0  0  0  0999 V2000
    9.6252   -9.8692   -2.4221 N   0  0  0  1  0  0  0  0  0  0  0  0
    9.7293   -8.5022   -2.4104 C   0  0  0  1  0  0  0  0  0  0  0  0
    8.7058  -10.7081   -1.6013 C   0  0  0  1  0  0  0  0  0  0  0  0
    9.0503  -10.7295   -0.5885 H   0  0  0  1  0  0  0  0  0  0  0  0
   10.5349  -10.3005   -3.3381 C   0  0  0  1  0  0  0  0  0  0  0  0
   10.6694  -11.3073   -3.5614 H   0  0  0  1  0  0  0  0  0  0  0  0
   10.7294   -8.1945   -3.3426 C   0  0  0  1  0  0  0  0  0  0  0  0
    9.0421   -7.6365   -1.6639 N   0  0  0  1  0  0  0  0  0  0  0  0
    7.4030  -10.2032   -1.6612 O   0  0  0  1  0  0  0  0  0  0  0  0
    8.6316  -12.1337   -2.1708 C   0  0  0  1  0  0  0  0  0  0  0  0
    9.5609  -12.4200   -2.6171 H   0  0  0  1  0  0  0  0  0  0  0  0
   11.2258   -9.3553   -3.9152 N   0  0  0  1  0  0  0  0  0  0  0  0
   11.0182   -6.8408   -3.4873 C   0  0  0  1  0  0  0  0  0  0  0  0
    9.4127   -6.3858   -1.9095 C   0  0  0  1  0  0  0  0  0  0  0  0
    8.9140   -5.6537   -1.3646 H   0  0  0  1  0  0  0  0  0  0  0  0
    6.6112  -10.9250   -2.6213 C   0  0  0  1  0  0  0  0  0  0  0  0
    5.7671  -11.3750   -2.1417 H   0  0  0  1  0  0  0  0  0  0  0  0
    7.5352  -12.0168   -3.2149 C   0  0  0  1  0  0  0  0  0  0  0  0
    7.9340  -11.7120   -4.1599 H   0  0  0  1  0  0  0  0  0  0  0  0
    8.2793  -13.0760   -1.1568 O   0  0  0  1  0  0  0  0  0  0  0  0
    7.3867  -13.3940   -1.3111 H   0  0  0  1  0  0  0  0  0  0  0  0
   10.3442   -5.9383   -2.7662 N   0  0  0  1  0  0  0  0  0  0  0  0
   11.9758   -6.3029   -4.3403 N   0  0  0  1  0  0  0  0  0  0  0  0
   12.5790   -6.8955   -4.8356 H   0  0  0  1  0  0  0  0  0  0  0  0
   12.0474   -5.3313   -4.4460 H   0  0  0  1  0  0  0  0  0  0  0  0
    6.1401  -10.0048   -3.6989 C   0  0  0  1  0  0  0  0  0  0  0  0
    5.4338   -9.3073   -3.2996 H   0  0  0  1  0  0  0  0  0  0  0  0
    5.6809  -10.5681   -4.4842 H   0  0  0  1  0  0  0  0  0  0  0  0
    6.8373  -13.2536   -3.3686 O   0  0  0  1  0  0  0  0  0  0  0  0
    5.9475  -13.1649   -3.0194 H   0  0  0  1  0  0  0  0  0  0  0  0
    7.2869   -9.3038   -4.2060 O   0  0  0  1  0  0  0  0  0  0  0  0
    7.2376   -7.9770   -5.1687 P   0  0  0  1  0  0  0  0  0  0  0  0
    6.6411   -6.6589   -4.3226 O   0  0  0  1  0  0  0  0  0  0  0  0
    8.5567   -7.7641   -5.8051 O   0  0  0  1  0  0  0  0  0  0  0  0
    6.1634   -8.4761   -6.2738 O   0  5  0  1  0  0  0  0  0  0  0  0
    6.5938   -5.0182   -4.4708 S   0  0  0  1  0  0  0  0  0  0  0  0
    5.4166   -4.6187   -3.7601 O   0  0  0  1  0  0  0  0  0  0  0  0
    4.7320   -5.2818   -3.8756 H   0  0  0  1  0  0  0  0  0  0  0  0
    7.8162   -4.6512   -3.8298 O   0  0  0  1  0  0  0  0  0  0  0  0
    6.5547   -4.7842   -5.8708 O   0  0  0  1  0  0  0  0  0  0  0  0
  1  2  1  0  0  0  0
  1  3  1  0  0  0  0
  1  5  1  0  0  0  0
  2  7  2  0  0  0  0
  2  8  1  0  0  0  0
  3  4  1  0  0  0  0
  3  9  1  0  0  0  0
  3 10  1  0  0  0  0
  5  6  1  0  0  0  0
  5 12  2  0  0  0  0
  7 12  1  0  0  0  0
  7 13  1  0  0  0  0
  8 14  2  0  0  0  0
  9 16  1  0  0  0  0
 10 11  1  0  0  0  0
 10 18  1  0  0  0  0
 10 20  1  0  0  0  0
 13 22  2  0  0  0  0
 13 23  1  0  0  0  0
 14 15  1  0  0  0  0
 14 22  1  0  0  0  0
 16 17  1  0  0  0  0
 16 18  1  0  0  0  0
 16 26  1  0  0  0  0
 18 19  1  0  0  0  0
 18 29  1  0  0  0  0
 20 21  1  0  0  0  0
 23 24  1  0  0  0  0
 23 25  1  0  0  0  0
 26 27  1  0  0  0  0
 26 28  1  0  0  0  0
 26 31  1  0  0  0  0
 29 30  1  0  0  0  0
 31 32  1  0  0  0  0
 32 33  1  0  0  0  0
 32 34  2  0  0  0  0
 32 35  1  0  0  0  0
 33 36  1  0  0  0  0
 36 37  1  0  0  0  0
 36 39  2  0  0  0  0
 36 40  2  0  0  0  0
 37 38  1  0  0  0  0
M  END
> <ConfClashScore>
0 

> <ConfOneFourInteractionScore>
-0.986291 

> <ConfScore>
-0.244722 

> <ConfScorePBest>
0.00768248 

> <ConfTolerance>
1.19003 

$$$$
ChEBI.****
  PyMOL2.5          3D                             0

 40 42  0  0  0  0  0  0  0  0999 V2000
    9.6394   -9.8556   -2.4102 N   0  0  0  1  0  0  0  0  0  0  0  0
    9.7435   -8.4887   -2.3930 C   0  0  0  1  0  0  0  0  0  0  0  0
    8.6556  -10.7081   -1.7143 C   0  0  0  1  0  0  0  0  0  0  0  0
    8.0884  -10.1129   -1.0295 H   0  0  0  1  0  0  0  0  0  0  0  0
   10.5362  -10.2820   -3.3412 C   0  0  0  1  0  0  0  0  0  0  0  0
   10.6677  -11.2877   -3.5715 H   0  0  0  1  0  0  0  0  0  0  0  0
   10.7303   -8.1760   -3.3377 C   0  0  0  1  0  0  0  0  0  0  0  0
    9.0667   -7.6270   -1.6324 N   0  0  0  1  0  0  0  0  0  0  0  0
    7.7995  -11.3045   -2.6475 O   0  0  0  1  0  0  0  0  0  0  0  0
    9.3820  -11.8288   -0.9537 C   0  0  0  1  0  0  0  0  0  0  0  0
   10.4265  -11.6166   -0.8595 H   0  0  0  1  0  0  0  0  0  0  0  0
   11.2187   -9.3337   -3.9232 N   0  0  0  1  0  0  0  0  0  0  0  0
   11.0167   -6.8215   -3.4795 C   0  0  0  1  0  0  0  0  0  0  0  0
    9.4336   -6.3750   -1.8768 C   0  0  0  1  0  0  0  0  0  0  0  0
    8.9425   -5.6458   -1.3212 H   0  0  0  1  0  0  0  0  0  0  0  0
    7.8165  -12.7576   -2.5057 C   0  0  0  1  0  0  0  0  0  0  0  0
    7.0067  -13.0876   -1.8891 H   0  0  0  1  0  0  0  0  0  0  0  0
    9.1449  -13.0531   -1.8480 C   0  0  0  1  0  0  0  0  0  0  0  0
    9.9205  -13.1486   -2.5788 H   0  0  0  1  0  0  0  0  0  0  0  0
    8.8157  -12.0214    0.3434 O   0  0  0  1  0  0  0  0  0  0  0  0
    7.9794  -12.4857    0.2622 H   0  0  0  1  0  0  0  0  0  0  0  0
   10.3529   -5.9229   -2.7443 N   0  0  0  1  0  0  0  0  0  0  0  0
   11.9578   -6.3464   -4.3457 N   0  0  0  1  0  0  0  0  0  0  0  0
   12.0705   -5.3802   -4.4652 H   0  0  0  1  0  0  0  0  0  0  0  0
   12.5210   -6.9713   -4.8484 H   0  0  0  1  0  0  0  0  0  0  0  0
    7.7285  -13.4203   -3.8410 C   0  0  0  1  0  0  0  0  0  0  0  0
    6.8701  -13.0620   -4.3698 H   0  0  0  1  0  0  0  0  0  0  0  0
    7.6550  -14.4806   -3.7175 H   0  0  0  1  0  0  0  0  0  0  0  0
    9.0741  -14.2481   -1.0689 O   0  0  0  1  0  0  0  0  0  0  0  0
    8.7562  -14.0378   -0.1878 H   0  0  0  1  0  0  0  0  0  0  0  0
    8.9318  -13.0920   -4.5746 O   0  0  0  1  0  0  0  0  0  0  0  0
    9.7097  -14.2281   -5.4656 P   0  0  0  1  0  0  0  0  0  0  0  0
   11.2444  -13.7046   -5.4686 O   0  0  0  1  0  0  0  0  0  0  0  0
    9.6110  -15.5653   -4.8391 O   0  0  0  1  0  0  0  0  0  0  0  0
    9.2767  -14.1989   -7.0264 O   0  5  0  1  0  0  0  0  0  0  0  0
   12.4568  -14.4171   -4.6852 S   0  0  0  1  0  0  0  0  0  0  0  0
   13.4671  -14.4871   -5.7270 O   0  0  0  1  0  0  0  0  0  0  0  0
   13.4316  -13.6906   -6.2618 H   0  0  0  1  0  0  0  0  0  0  0  0
   12.8116  -13.5313   -3.5996 O   0  0  0  1  0  0  0  0  0  0  0  0
   11.9604  -15.7000   -4.2628 O   0  0  0  1  0  0  0  0  0  0  0  0
  1  2  1  0  0  0  0
  1  3  1  0  0  0  0
  1  5  1  0  0  0  0
  2  7  2  0  0  0  0
  2  8  1  0  0  0  0
  3  4  1  0  0  0  0
  3  9  1  0  0  0  0
  3 10  1  0  0  0  0
  5  6  1  0  0  0  0
  5 12  2  0  0  0  0
  7 12  1  0  0  0  0
  7 13  1  0  0  0  0
  8 14  2  0  0  0  0
  9 16  1  0  0  0  0
 10 11  1  0  0  0  0
 10 18  1  0  0  0  0
 10 20  1  0  0  0  0
 13 22  2  0  0  0  0
 13 23  1  0  0  0  0
 14 15  1  0  0  0  0
 14 22  1  0  0  0  0
 16 17  1  0  0  0  0
 16 18  1  0  0  0  0
 16 26  1  0  0  0  0
 18 19  1  0  0  0  0
 18 29  1  0  0  0  0
 20 21  1  0  0  0  0
 23 24  1  0  0  0  0
 23 25  1  0  0  0  0
 26 27  1  0  0  0  0
 26 28  1  0  0  0  0
 26 31  1  0  0  0  0
 29 30  1  0  0  0  0
 31 32  1  0  0  0  0
 32 33  1  0  0  0  0
 32 34  2  0  0  0  0
 32 35  1  0  0  0  0
 33 36  1  0  0  0  0
 36 37  1  0  0  0  0
 36 39  2  0  0  0  0
 36 40  2  0  0  0  0
 37 38  1  0  0  0  0
M  END
> <ConfClashScore>
0 

> <ConfOneFourInteractionScore>
-0.98267 

> <ConfScore>
-0.241746 

> <ConfScorePBest>
0.00757948 

> <ConfTolerance>
1.09366 

$$$$
ChEBI.****
  PyMOL2.5          3D                             0

 40 42  0  0  0  0  0  0  0  0999 V2000
    9.6271   -9.8592   -2.4319 N   0  0  0  1  0  0  0  0  0  0  0  0
    9.7301   -8.4923   -2.4101 C   0  0  0  1  0  0  0  0  0  0  0  0
    8.7205  -10.6959   -1.6241 C   0  0  0  1  0  0  0  0  0  0  0  0
    8.5519  -11.6263   -2.1250 H   0  0  0  1  0  0  0  0  0  0  0  0
   10.5348  -10.2828   -3.3535 C   0  0  0  1  0  0  0  0  0  0  0  0
   10.6696  -11.2877   -3.5848 H   0  0  0  1  0  0  0  0  0  0  0  0
   10.7276   -8.1767   -3.3425 C   0  0  0  1  0  0  0  0  0  0  0  0
    9.0440   -7.6329   -1.6553 N   0  0  0  1  0  0  0  0  0  0  0  0
    9.2855  -10.9298   -0.3650 O   0  0  0  1  0  0  0  0  0  0  0  0
    7.3841   -9.9660   -1.4156 C   0  0  0  1  0  0  0  0  0  0  0  0
    7.2809   -9.1482   -2.0978 H   0  0  0  1  0  0  0  0  0  0  0  0
   11.2235   -9.3326   -3.9251 N   0  0  0  1  0  0  0  0  0  0  0  0
   11.0148   -6.8216   -3.4776 C   0  0  0  1  0  0  0  0  0  0  0  0
    9.4129   -6.3800   -1.8923 C   0  0  0  1  0  0  0  0  0  0  0  0
    8.9150   -5.6525   -1.3406 H   0  0  0  1  0  0  0  0  0  0  0  0
    8.3772  -10.4999    0.6942 C   0  0  0  1  0  0  0  0  0  0  0  0
    7.7956  -11.3237    1.0522 H   0  0  0  1  0  0  0  0  0  0  0  0
    7.4931   -9.4682    0.0319 C   0  0  0  1  0  0  0  0  0  0  0  0
    7.9431   -8.4982    0.0697 H   0  0  0  1  0  0  0  0  0  0  0  0
    6.2802  -10.8590   -1.5711 O   0  0  0  1  0  0  0  0  0  0  0  0
    5.9859  -10.8486   -2.4848 H   0  0  0  1  0  0  0  0  0  0  0  0
   10.3419   -5.9253   -2.7479 N   0  0  0  1  0  0  0  0  0  0  0  0
   11.9695   -6.3419   -4.3351 N   0  0  0  1  0  0  0  0  0  0  0  0
   12.5007   -6.9641   -4.8746 H   0  0  0  1  0  0  0  0  0  0  0  0
   12.1211   -5.3765   -4.4090 H   0  0  0  1  0  0  0  0  0  0  0  0
    9.1365   -9.8954    1.8291 C   0  0  0  1  0  0  0  0  0  0  0  0
    9.6343  -10.6628    2.3843 H   0  0  0  1  0  0  0  0  0  0  0  0
    8.4673   -9.3650    2.4738 H   0  0  0  1  0  0  0  0  0  0  0  0
    6.2081   -9.4224    0.6539 O   0  0  0  1  0  0  0  0  0  0  0  0
    6.2137   -8.7644    1.3529 H   0  0  0  1  0  0  0  0  0  0  0  0
   10.1095   -8.9820    1.2697 O   0  0  0  1  0  0  0  0  0  0  0  0
   11.3422   -8.4035    2.1836 P   0  0  0  1  0  0  0  0  0  0  0  0
   10.6382   -7.4566    3.3739 O   0  0  0  1  0  0  0  0  0  0  0  0
   11.9912   -9.5466    2.8636 O   0  0  0  1  0  0  0  0  0  0  0  0
   12.3221   -7.4935    1.2691 O   0  5  0  1  0  0  0  0  0  0  0  0
    9.9982   -6.0640    3.5073 S   0  0  0  1  0  0  0  0  0  0  0  0
   11.0880   -5.1915    3.7949 O   0  0  0  1  0  0  0  0  0  0  0  0
   11.8688   -5.7109    4.0004 H   0  0  0  1  0  0  0  0  0  0  0  0
    9.6430   -6.0721    2.1919 O   0  0  0  1  0  0  0  0  0  0  0  0
    9.1537   -6.2832    4.5412 O   0  0  0  1  0  0  0  0  0  0  0  0
  1  2  1  0  0  0  0
  1  3  1  0  0  0  0
  1  5  1  0  0  0  0
  2  7  2  0  0  0  0
  2  8  1  0  0  0  0
  3  4  1  0  0  0  0
  3  9  1  0  0  0  0
  3 10  1  0  0  0  0
  5  6  1  0  0  0  0
  5 12  2  0  0  0  0
  7 12  1  0  0  0  0
  7 13  1  0  0  0  0
  8 14  2  0  0  0  0
  9 16  1  0  0  0  0
 10 11  1  0  0  0  0
 10 18  1  0  0  0  0
 10 20  1  0  0  0  0
 13 22  2  0  0  0  0
 13 23  1  0  0  0  0
 14 15  1  0  0  0  0
 14 22  1  0  0  0  0
 16 17  1  0  0  0  0
 16 18  1  0  0  0  0
 16 26  1  0  0  0  0
 18 19  1  0  0  0  0
 18 29  1  0  0  0  0
 20 21  1  0  0  0  0
 23 24  1  0  0  0  0
 23 25  1  0  0  0  0
 26 27  1  0  0  0  0
 26 28  1  0  0  0  0
 26 31  1  0  0  0  0
 29 30  1  0  0  0  0
 31 32  1  0  0  0  0
 32 33  1  0  0  0  0
 32 34  2  0  0  0  0
 32 35  1  0  0  0  0
 33 36  1  0  0  0  0
 36 37  1  0  0  0  0
 36 39  2  0  0  0  0
 36 40  2  0  0  0  0
 37 38  1  0  0  0  0
M  END
> <ConfClashScore>
0 

> <ConfOneFourInteractionScore>
-0.986291 

> <ConfScore>
-0.240286 

> <ConfScorePBest>
0.00747648 

> <ConfTolerance>
1.072 

$$$$
ChEBI.****
  PyMOL2.5          3D                             0

 40 42  0  0  0  0  0  0  0  0999 V2000
    9.6098   -9.8605   -2.4183 N   0  0  0  1  0  0  0  0  0  0  0  0
    9.7255   -8.4944   -2.4056 C   0  0  0  1  0  0  0  0  0  0  0  0
    8.7174  -10.7303   -1.6272 C   0  0  0  1  0  0  0  0  0  0  0  0
    9.0697  -10.7802   -0.6181 H   0  0  0  1  0  0  0  0  0  0  0  0
   10.5118  -10.2984   -3.3389 C   0  0  0  1  0  0  0  0  0  0  0  0
   10.6368  -11.3060   -3.5638 H   0  0  0  1  0  0  0  0  0  0  0  0
   10.7239   -8.1941   -3.3420 C   0  0  0  1  0  0  0  0  0  0  0  0
    9.0488   -7.6238   -1.6551 N   0  0  0  1  0  0  0  0  0  0  0  0
    7.3982  -10.2583   -1.6698 O   0  0  0  1  0  0  0  0  0  0  0  0
    8.6376  -12.1337   -2.2455 C   0  0  0  1  0  0  0  0  0  0  0  0
    8.6981  -12.0890   -3.3128 H   0  0  0  1  0  0  0  0  0  0  0  0
   11.2079   -9.3583   -3.9181 N   0  0  0  1  0  0  0  0  0  0  0  0
   11.0233   -6.8427   -3.4866 C   0  0  0  1  0  0  0  0  0  0  0  0
    9.4288   -6.3760   -1.9010 C   0  0  0  1  0  0  0  0  0  0  0  0
    8.9387   -5.6404   -1.3531 H   0  0  0  1  0  0  0  0  0  0  0  0
    6.4420  -11.3355   -1.7911 C   0  0  0  1  0  0  0  0  0  0  0  0
    5.7671  -11.3338   -0.9608 H   0  0  0  1  0  0  0  0  0  0  0  0
    7.2826  -12.6157   -1.7980 C   0  0  0  1  0  0  0  0  0  0  0  0
    6.8842  -13.3327   -2.4850 H   0  0  0  1  0  0  0  0  0  0  0  0
    9.6756  -12.9770   -1.7440 O   0  0  0  1  0  0  0  0  0  0  0  0
   10.0907  -13.4427   -2.4737 H   0  0  0  1  0  0  0  0  0  0  0  0
   10.3602   -5.9354   -2.7614 N   0  0  0  1  0  0  0  0  0  0  0  0
   11.9816   -6.3119   -4.3432 N   0  0  0  1  0  0  0  0  0  0  0  0
   12.0930   -5.3407   -4.4124 H   0  0  0  1  0  0  0  0  0  0  0  0
   12.5455   -6.9090   -4.8778 H   0  0  0  1  0  0  0  0  0  0  0  0
    5.6687  -11.2093   -3.0624 C   0  0  0  1  0  0  0  0  0  0  0  0
    4.9910  -10.3840   -2.9963 H   0  0  0  1  0  0  0  0  0  0  0  0
    5.1192  -12.1089   -3.2455 H   0  0  0  1  0  0  0  0  0  0  0  0
    7.3492  -13.1919   -0.4927 O   0  0  0  1  0  0  0  0  0  0  0  0
    7.1579  -14.1311   -0.5469 H   0  0  0  1  0  0  0  0  0  0  0  0
    6.6163  -10.9842   -4.1325 O   0  0  0  1  0  0  0  0  0  0  0  0
    6.1030  -10.6923   -5.6625 P   0  0  0  1  0  0  0  0  0  0  0  0
    7.0553  -11.3237   -6.8132 O   0  0  0  1  0  0  0  0  0  0  0  0
    4.6567  -10.8859   -5.9097 O   0  0  0  1  0  0  0  0  0  0  0  0
    6.3639   -9.0964   -5.7602 O   0  5  0  1  0  0  0  0  0  0  0  0
    8.3756  -12.3625   -6.5182 S   0  0  0  1  0  0  0  0  0  0  0  0
    9.3964  -11.3810   -6.2851 O   0  0  0  1  0  0  0  0  0  0  0  0
    8.9888  -10.5456   -6.0452 H   0  0  0  1  0  0  0  0  0  0  0  0
    7.8466  -12.9621   -5.3902 O   0  0  0  1  0  0  0  0  0  0  0  0
    8.5487  -13.1057   -7.6553 O   0  0  0  1  0  0  0  0  0  0  0  0
  1  2  1  0  0  0  0
  1  3  1  0  0  0  0
  1  5  1  0  0  0  0
  2  7  2  0  0  0  0
  2  8  1  0  0  0  0
  3  4  1  0  0  0  0
  3  9  1  0  0  0  0
  3 10  1  0  0  0  0
  5  6  1  0  0  0  0
  5 12  2  0  0  0  0
  7 12  1  0  0  0  0
  7 13  1  0  0  0  0
  8 14  2  0  0  0  0
  9 16  1  0  0  0  0
 10 11  1  0  0  0  0
 10 18  1  0  0  0  0
 10 20  1  0  0  0  0
 13 22  2  0  0  0  0
 13 23  1  0  0  0  0
 14 15  1  0  0  0  0
 14 22  1  0  0  0  0
 16 17  1  0  0  0  0
 16 18  1  0  0  0  0
 16 26  1  0  0  0  0
 18 19  1  0  0  0  0
 18 29  1  0  0  0  0
 20 21  1  0  0  0  0
 23 24  1  0  0  0  0
 23 25  1  0  0  0  0
 26 27  1  0  0  0  0
 26 28  1  0  0  0  0
 26 31  1  0  0  0  0
 29 30  1  0  0  0  0
 31 32  1  0  0  0  0
 32 33  1  0  0  0  0
 32 34  2  0  0  0  0
 32 35  1  0  0  0  0
 33 36  1  0  0  0  0
 36 37  1  0  0  0  0
 36 39  2  0  0  0  0
 36 40  2  0  0  0  0
 37 38  1  0  0  0  0
M  END
> <ConfClashScore>
0 

> <ConfOneFourInteractionScore>
-0.970142 

> <ConfScore>
-0.239318 

> <ConfScorePBest>
0.00737347 

> <ConfTolerance>
1.28831 

$$$$
ChEBI.****
  PyMOL2.5          3D                             0

 40 42  0  0  0  0  0  0  0  0999 V2000
    9.6324   -9.8518   -2.4365 N   0  0  0  1  0  0  0  0  0  0  0  0
    9.7297   -8.4845   -2.4089 C   0  0  0  1  0  0  0  0  0  0  0  0
    8.7361  -10.6892   -1.6387 C   0  0  0  1  0  0  0  0  0  0  0  0
    7.7236  -10.3823   -1.7989 H   0  0  0  1  0  0  0  0  0  0  0  0
   10.5421  -10.2676   -3.3597 C   0  0  0  1  0  0  0  0  0  0  0  0
   10.6811  -11.2710   -3.5952 H   0  0  0  1  0  0  0  0  0  0  0  0
   10.7261   -8.1608   -3.3396 C   0  0  0  1  0  0  0  0  0  0  0  0
    9.0399   -7.6312   -1.6506 N   0  0  0  1  0  0  0  0  0  0  0  0
    8.8891  -12.0316   -2.0044 O   0  0  0  1  0  0  0  0  0  0  0  0
    9.0906  -10.5606   -0.1488 C   0  0  0  1  0  0  0  0  0  0  0  0
    9.7171   -9.7111    0.0266 H   0  0  0  1  0  0  0  0  0  0  0  0
   11.2269   -9.3122   -3.9271 N   0  0  0  1  0  0  0  0  0  0  0  0
   11.0077   -6.8040   -3.4689 C   0  0  0  1  0  0  0  0  0  0  0  0
    9.4037   -6.3758   -1.8822 C   0  0  0  1  0  0  0  0  0  0  0  0
    8.9026   -5.6527   -1.3275 H   0  0  0  1  0  0  0  0  0  0  0  0
    9.2257  -12.8465   -0.8406 C   0  0  0  1  0  0  0  0  0  0  0  0
    8.3474  -13.2944   -0.4248 H   0  0  0  1  0  0  0  0  0  0  0  0
    9.8409  -11.8689    0.1344 C   0  0  0  1  0  0  0  0  0  0  0  0
   10.8891  -11.7557   -0.0479 H   0  0  0  1  0  0  0  0  0  0  0  0
    7.9132  -10.4585    0.6535 O   0  0  0  1  0  0  0  0  0  0  0  0
    8.1510  -10.5238    1.5813 H   0  0  0  1  0  0  0  0  0  0  0  0
   10.3310   -5.9136   -2.7356 N   0  0  0  1  0  0  0  0  0  0  0  0
   11.9680   -6.3725   -4.3369 N   0  0  0  1  0  0  0  0  0  0  0  0
   12.1488   -5.4138   -4.4305 H   0  0  0  1  0  0  0  0  0  0  0  0
   12.4769   -7.0211   -4.8667 H   0  0  0  1  0  0  0  0  0  0  0  0
   10.2105  -13.9213   -1.2099 C   0  0  0  1  0  0  0  0  0  0  0  0
   11.0361  -13.5027   -1.7465 H   0  0  0  1  0  0  0  0  0  0  0  0
    9.7376  -14.6707   -1.8097 H   0  0  0  1  0  0  0  0  0  0  0  0
    9.6349  -12.2934    1.4795 O   0  0  0  1  0  0  0  0  0  0  0  0
    9.5109  -11.5256    2.0423 H   0  0  0  1  0  0  0  0  0  0  0  0
   10.6584  -14.4872    0.0443 O   0  0  0  1  0  0  0  0  0  0  0  0
   11.3983  -15.9501    0.0900 P   0  0  0  1  0  0  0  0  0  0  0  0
   11.3202  -16.4407    1.6337 O   0  0  0  1  0  0  0  0  0  0  0  0
   10.9146  -16.9684   -0.8690 O   0  0  0  1  0  0  0  0  0  0  0  0
   12.9791  -15.6953   -0.1560 O   0  5  0  1  0  0  0  0  0  0  0  0
   10.9008  -17.9515    2.1123 S   0  0  0  1  0  0  0  0  0  0  0  0
   11.9351  -18.2704    3.0398 O   0  0  0  1  0  0  0  0  0  0  0  0
   11.9904  -17.5825    3.7071 H   0  0  0  1  0  0  0  0  0  0  0  0
    9.6273  -17.6305    2.6272 O   0  0  0  1  0  0  0  0  0  0  0  0
   10.8487  -18.8592    1.0170 O   0  0  0  1  0  0  0  0  0  0  0  0
  1  2  1  0  0  0  0
  1  3  1  0  0  0  0
  1  5  1  0  0  0  0
  2  7  2  0  0  0  0
  2  8  1  0  0  0  0
  3  4  1  0  0  0  0
  3  9  1  0  0  0  0
  3 10  1  0  0  0  0
  5  6  1  0  0  0  0
  5 12  2  0  0  0  0
  7 12  1  0  0  0  0
  7 13  1  0  0  0  0
  8 14  2  0  0  0  0
  9 16  1  0  0  0  0
 10 11  1  0  0  0  0
 10 18  1  0  0  0  0
 10 20  1  0  0  0  0
 13 22  2  0  0  0  0
 13 23  1  0  0  0  0
 14 15  1  0  0  0  0
 14 22  1  0  0  0  0
 16 17  1  0  0  0  0
 16 18  1  0  0  0  0
 16 26  1  0  0  0  0
 18 19  1  0  0  0  0
 18 29  1  0  0  0  0
 20 21  1  0  0  0  0
 23 24  1  0  0  0  0
 23 25  1  0  0  0  0
 26 27  1  0  0  0  0
 26 28  1  0  0  0  0
 26 31  1  0  0  0  0
 29 30  1  0  0  0  0
 31 32  1  0  0  0  0
 32 33  1  0  0  0  0
 32 34  2  0  0  0  0
 32 35  1  0  0  0  0
 33 36  1  0  0  0  0
 36 37  1  0  0  0  0
 36 39  2  0  0  0  0
 36 40  2  0  0  0  0
 37 38  1  0  0  0  0
M  END
> <ConfClashScore>
0 

> <ConfOneFourInteractionScore>
-0.976957 

> <ConfScore>
-0.236162 

> <ConfScorePBest>
0.00727047 

> <ConfTolerance>
1.19225 

$$$$
ChEBI.****
  PyMOL2.5          3D                             0

 40 42  0  0  0  0  0  0  0  0999 V2000
    9.6310   -9.8507   -2.4377 N   0  0  0  1  0  0  0  0  0  0  0  0
    9.7300   -8.4836   -2.4093 C   0  0  0  1  0  0  0  0  0  0  0  0
    8.7263  -10.6949   -1.6329 C   0  0  0  1  0  0  0  0  0  0  0  0
    8.4103  -10.1539   -0.7656 H   0  0  0  1  0  0  0  0  0  0  0  0
   10.5398  -10.2671   -3.3616 C   0  0  0  1  0  0  0  0  0  0  0  0
   10.6775  -11.2705   -3.5978 H   0  0  0  1  0  0  0  0  0  0  0  0
   10.7262   -8.1605   -3.3404 C   0  0  0  1  0  0  0  0  0  0  0  0
    9.0415   -7.6300   -1.6501 N   0  0  0  1  0  0  0  0  0  0  0  0
    7.6191  -11.0839   -2.3936 O   0  0  0  1  0  0  0  0  0  0  0  0
    9.4336  -11.9963   -1.2227 C   0  0  0  1  0  0  0  0  0  0  0  0
   10.4828  -11.8383   -1.0839 H   0  0  0  1  0  0  0  0  0  0  0  0
   11.2254   -9.3121   -3.9288 N   0  0  0  1  0  0  0  0  0  0  0  0
   11.0093   -6.8039   -3.4690 C   0  0  0  1  0  0  0  0  0  0  0  0
    9.4066   -6.3749   -1.8811 C   0  0  0  1  0  0  0  0  0  0  0  0
    8.9066   -5.6515   -1.3258 H   0  0  0  1  0  0  0  0  0  0  0  0
    7.7927  -12.4115   -2.9201 C   0  0  0  1  0  0  0  0  0  0  0  0
    7.0139  -13.0546   -2.5668 H   0  0  0  1  0  0  0  0  0  0  0  0
    9.1687  -12.9058   -2.4095 C   0  0  0  1  0  0  0  0  0  0  0  0
    9.9226  -12.7895   -3.1599 H   0  0  0  1  0  0  0  0  0  0  0  0
    8.8700  -12.5339   -0.0255 O   0  0  0  1  0  0  0  0  0  0  0  0
    8.0836  -13.0406   -0.2409 H   0  0  0  1  0  0  0  0  0  0  0  0
   10.3340   -5.9131   -2.7348 N   0  0  0  1  0  0  0  0  0  0  0  0
   11.9697   -6.3729   -4.3372 N   0  0  0  1  0  0  0  0  0  0  0  0
   12.4710   -7.0212   -4.8746 H   0  0  0  1  0  0  0  0  0  0  0  0
   12.1581   -5.4151   -4.4234 H   0  0  0  1  0  0  0  0  0  0  0  0
    7.7758  -12.3817   -4.4130 C   0  0  0  1  0  0  0  0  0  0  0  0
    7.9255  -13.3684   -4.7989 H   0  0  0  1  0  0  0  0  0  0  0  0
    8.5493  -11.7361   -4.7734 H   0  0  0  1  0  0  0  0  0  0  0  0
    9.1059  -14.2742   -2.0049 O   0  0  0  1  0  0  0  0  0  0  0  0
    8.3416  -14.6927   -2.4078 H   0  0  0  1  0  0  0  0  0  0  0  0
    6.4831  -11.8811   -4.8278 O   0  0  0  1  0  0  0  0  0  0  0  0
    6.1396  -11.6533   -6.4152 P   0  0  0  1  0  0  0  0  0  0  0  0
    6.6918  -10.2014   -6.8804 O   0  0  0  1  0  0  0  0  0  0  0  0
    6.7819  -12.7156   -7.2211 O   0  0  0  1  0  0  0  0  0  0  0  0
    4.5341  -11.7002   -6.6264 O   0  5  0  1  0  0  0  0  0  0  0  0
    7.2526   -9.1035   -5.9056 S   0  0  0  1  0  0  0  0  0  0  0  0
    8.5003   -8.8070   -6.6184 O   0  0  0  1  0  0  0  0  0  0  0  0
    8.3762   -8.9582   -7.5582 H   0  0  0  1  0  0  0  0  0  0  0  0
    6.4263   -7.9744   -5.8832 O   0  0  0  1  0  0  0  0  0  0  0  0
    7.5666   -9.8016   -4.7088 O   0  0  0  1  0  0  0  0  0  0  0  0
  1  2  1  0  0  0  0
  1  3  1  0  0  0  0
  1  5  1  0  0  0  0
  2  7  2  0  0  0  0
  2  8  1  0  0  0  0
  3  4  1  0  0  0  0
  3  9  1  0  0  0  0
  3 10  1  0  0  0  0
  5  6  1  0  0  0  0
  5 12  2  0  0  0  0
  7 12  1  0  0  0  0
  7 13  1  0  0  0  0
  8 14  2  0  0  0  0
  9 16  1  0  0  0  0
 10 11  1  0  0  0  0
 10 18  1  0  0  0  0
 10 20  1  0  0  0  0
 13 22  2  0  0  0  0
 13 23  1  0  0  0  0
 14 15  1  0  0  0  0
 14 22  1  0  0  0  0
 16 17  1  0  0  0  0
 16 18  1  0  0  0  0
 16 26  1  0  0  0  0
 18 19  1  0  0  0  0
 18 29  1  0  0  0  0
 20 21  1  0  0  0  0
 23 24  1  0  0  0  0
 23 25  1  0  0  0  0
 26 27  1  0  0  0  0
 26 28  1  0  0  0  0
 26 31  1  0  0  0  0
 29 30  1  0  0  0  0
 31 32  1  0  0  0  0
 32 33  1  0  0  0  0
 32 34  2  0  0  0  0
 32 35  1  0  0  0  0
 33 36  1  0  0  0  0
 36 37  1  0  0  0  0
 36 39  2  0  0  0  0
 36 40  2  0  0  0  0
 37 38  1  0  0  0  0
M  END
> <ConfClashScore>
0 

> <ConfOneFourInteractionScore>
-0.963418 

> <ConfScore>
-0.236127 

> <ConfScorePBest>
0.00716747 

> <ConfTolerance>
1.35545 

$$$$
ChEBI.****
  PyMOL2.5          3D                             0

 40 42  0  0  0  0  0  0  0  0999 V2000
    9.6181   -9.8696   -2.4274 N   0  0  0  1  0  0  0  0  0  0  0  0
    9.7283   -8.5031   -2.4092 C   0  0  0  1  0  0  0  0  0  0  0  0
    8.7077  -10.7003   -1.6151 C   0  0  0  1  0  0  0  0  0  0  0  0
    8.9297  -10.5636   -0.5774 H   0  0  0  1  0  0  0  0  0  0  0  0
   10.5221  -10.3002   -3.3494 C   0  0  0  1  0  0  0  0  0  0  0  0
   10.6513  -11.3064   -3.5783 H   0  0  0  1  0  0  0  0  0  0  0  0
   10.7258   -8.1951   -3.3440 C   0  0  0  1  0  0  0  0  0  0  0  0
    9.0479   -7.6383   -1.6555 N   0  0  0  1  0  0  0  0  0  0  0  0
    7.3380  -10.3476   -1.8830 O   0  0  0  1  0  0  0  0  0  0  0  0
    8.8499  -12.1593   -1.9943 C   0  0  0  1  0  0  0  0  0  0  0  0
    9.2197  -12.2608   -2.9933 H   0  0  0  1  0  0  0  0  0  0  0  0
   11.2147   -9.3550   -3.9246 N   0  0  0  1  0  0  0  0  0  0  0  0
   11.0199   -6.8419   -3.4831 C   0  0  0  1  0  0  0  0  0  0  0  0
    9.4230   -6.3880   -1.8963 C   0  0  0  1  0  0  0  0  0  0  0  0
    8.9297   -5.6565   -1.3456 H   0  0  0  1  0  0  0  0  0  0  0  0
    6.6171  -11.5071   -2.3387 C   0  0  0  1  0  0  0  0  0  0  0  0
    5.6416  -11.5388   -1.9001 H   0  0  0  1  0  0  0  0  0  0  0  0
    7.4411  -12.6884   -1.8839 C   0  0  0  1  0  0  0  0  0  0  0  0
    7.2933  -13.5331   -2.5238 H   0  0  0  1  0  0  0  0  0  0  0  0
    9.7232  -12.8391   -1.0913 O   0  0  0  1  0  0  0  0  0  0  0  0
   10.6310  -12.7392   -1.3871 H   0  0  0  1  0  0  0  0  0  0  0  0
   10.3529   -5.9402   -2.7546 N   0  0  0  1  0  0  0  0  0  0  0  0
   11.9792   -6.3022   -4.3399 N   0  0  0  1  0  0  0  0  0  0  0  0
   12.5018   -6.8911   -4.9235 H   0  0  0  1  0  0  0  0  0  0  0  0
   12.1307   -5.3342   -4.3583 H   0  0  0  1  0  0  0  0  0  0  0  0
    6.4943  -11.4960   -3.8269 C   0  0  0  1  0  0  0  0  0  0  0  0
    6.0340  -10.5850   -4.1478 H   0  0  0  1  0  0  0  0  0  0  0  0
    5.9038  -12.3277   -4.1500 H   0  0  0  1  0  0  0  0  0  0  0  0
    7.1282  -13.0496   -0.5372 O   0  0  0  1  0  0  0  0  0  0  0  0
    7.8950  -12.9007    0.0210 H   0  0  0  1  0  0  0  0  0  0  0  0
    7.8284  -11.5950   -4.3786 O   0  0  0  1  0  0  0  0  0  0  0  0
    8.0895  -11.4057   -5.9865 P   0  0  0  1  0  0  0  0  0  0  0  0
    7.7311   -9.7902   -6.2529 O   0  0  0  1  0  0  0  0  0  0  0  0
    9.4799  -11.7485   -6.3603 O   0  0  0  1  0  0  0  0  0  0  0  0
    6.9865  -12.3697   -6.6783 O   0  5  0  1  0  0  0  0  0  0  0  0
    7.9551   -8.7149   -7.3553 S   0  0  0  1  0  0  0  0  0  0  0  0
    7.7910   -9.5285   -8.6555 O   0  0  0  1  0  0  0  0  0  0  0  0
    8.4370   -9.2338   -9.3016 H   0  0  0  1  0  0  0  0  0  0  0  0
    6.9963   -7.7360   -7.3193 O   0  0  0  1  0  0  0  0  0  0  0  0
    9.3403   -8.5854   -7.4401 O   0  0  0  1  0  0  0  0  0  0  0  0
  1  2  1  0  0  0  0
  1  3  1  0  0  0  0
  1  5  1  0  0  0  0
  2  7  2  0  0  0  0
  2  8  1  0  0  0  0
  3  4  1  0  0  0  0
  3  9  1  0  0  0  0
  3 10  1  0  0  0  0
  5  6  1  0  0  0  0
  5 12  2  0  0  0  0
  7 12  1  0  0  0  0
  7 13  1  0  0  0  0
  8 14  2  0  0  0  0
  9 16  1  0  0  0  0
 10 11  1  0  0  0  0
 10 18  1  0  0  0  0
 10 20  1  0  0  0  0
 13 22  2  0  0  0  0
 13 23  1  0  0  0  0
 14 15  1  0  0  0  0
 14 22  1  0  0  0  0
 16 17  1  0  0  0  0
 16 18  1  0  0  0  0
 16 26  1  0  0  0  0
 18 19  1  0  0  0  0
 18 29  1  0  0  0  0
 20 21  1  0  0  0  0
 23 24  1  0  0  0  0
 23 25  1  0  0  0  0
 26 27  1  0  0  0  0
 26 28  1  0  0  0  0
 26 31  1  0  0  0  0
 29 30  1  0  0  0  0
 31 32  1  0  0  0  0
 32 33  1  0  0  0  0
 32 34  2  0  0  0  0
 32 35  1  0  0  0  0
 33 36  1  0  0  0  0
 36 37  1  0  0  0  0
 36 39  2  0  0  0  0
 36 40  2  0  0  0  0
 37 38  1  0  0  0  0
M  END
> <ConfClashScore>
0 

> <ConfOneFourInteractionScore>
-0.982448 

> <ConfScore>
-0.234798 

> <ConfScorePBest>
0.00706447 

> <ConfTolerance>
1.47117 

$$$$
ChEBI.****
  PyMOL2.5          3D                             0

 40 42  0  0  0  0  0  0  0  0999 V2000
    9.6126   -9.8561   -2.4415 N   0  0  0  1  0  0  0  0  0  0  0  0
    9.7191   -8.4894   -2.4196 C   0  0  0  1  0  0  0  0  0  0  0  0
    8.7729  -10.7003   -1.5717 C   0  0  0  1  0  0  0  0  0  0  0  0
    7.7432  -10.4466   -1.7140 H   0  0  0  1  0  0  0  0  0  0  0  0
   10.5261  -10.2825   -3.3562 C   0  0  0  1  0  0  0  0  0  0  0  0
   10.6599  -11.2879   -3.5859 H   0  0  0  1  0  0  0  0  0  0  0  0
   10.7243   -8.1769   -3.3448 C   0  0  0  1  0  0  0  0  0  0  0  0
    9.0297   -7.6278   -1.6704 N   0  0  0  1  0  0  0  0  0  0  0  0
    8.9946  -12.1000   -1.8560 O   0  0  0  1  0  0  0  0  0  0  0  0
    9.1722  -10.5238   -0.1036 C   0  0  0  1  0  0  0  0  0  0  0  0
   10.1779  -10.1682   -0.0195 H   0  0  0  1  0  0  0  0  0  0  0  0
   11.2214   -9.3344   -3.9232 N   0  0  0  1  0  0  0  0  0  0  0  0
   11.0161   -6.8227   -3.4784 C   0  0  0  1  0  0  0  0  0  0  0  0
    9.4037   -6.3761   -1.9053 C   0  0  0  1  0  0  0  0  0  0  0  0
    8.9036   -5.6470   -1.3576 H   0  0  0  1  0  0  0  0  0  0  0  0
    9.4564  -12.7971   -0.7309 C   0  0  0  1  0  0  0  0  0  0  0  0
    8.9955  -13.7606   -0.6665 H   0  0  0  1  0  0  0  0  0  0  0  0
    9.0427  -11.9159    0.4566 C   0  0  0  1  0  0  0  0  0  0  0  0
    9.6985  -12.0589    1.2899 H   0  0  0  1  0  0  0  0  0  0  0  0
    8.2895   -9.6195    0.5622 O   0  0  0  1  0  0  0  0  0  0  0  0
    8.7334   -9.2415    1.3248 H   0  0  0  1  0  0  0  0  0  0  0  0
   10.3402   -5.9242   -2.7542 N   0  0  0  1  0  0  0  0  0  0  0  0
   11.9783   -6.3459   -4.3291 N   0  0  0  1  0  0  0  0  0  0  0  0
   12.1607   -5.3840   -4.3728 H   0  0  0  1  0  0  0  0  0  0  0  0
   12.4842   -6.9667   -4.8939 H   0  0  0  1  0  0  0  0  0  0  0  0
   10.9403  -12.9566   -0.7797 C   0  0  0  1  0  0  0  0  0  0  0  0
   11.2811  -13.4664    0.0972 H   0  0  0  1  0  0  0  0  0  0  0  0
   11.4083  -11.9961   -0.8390 H   0  0  0  1  0  0  0  0  0  0  0  0
    7.6984  -12.1874    0.8557 O   0  0  0  1  0  0  0  0  0  0  0  0
    7.5014  -13.1152    0.7077 H   0  0  0  1  0  0  0  0  0  0  0  0
   11.2602  -13.7341   -1.9573 O   0  0  0  1  0  0  0  0  0  0  0  0
   12.6471  -13.4661   -2.7906 P   0  0  0  1  0  0  0  0  0  0  0  0
   12.7423  -14.5120   -4.0262 O   0  0  0  1  0  0  0  0  0  0  0  0
   12.7293  -12.0381   -3.1706 O   0  0  0  1  0  0  0  0  0  0  0  0
   13.7687  -13.9190   -1.7130 O   0  5  0  1  0  0  0  0  0  0  0  0
   14.0668  -15.2140   -4.5051 S   0  0  0  1  0  0  0  0  0  0  0  0
   15.0413  -14.2754   -4.0242 O   0  0  0  1  0  0  0  0  0  0  0  0
   15.7558  -14.2007   -4.6609 H   0  0  0  1  0  0  0  0  0  0  0  0
   14.1582  -16.4342   -3.8264 O   0  0  0  1  0  0  0  0  0  0  0  0
   14.1102  -15.2786   -5.9101 O   0  0  0  1  0  0  0  0  0  0  0  0
  1  2  1  0  0  0  0
  1  3  1  0  0  0  0
  1  5  1  0  0  0  0
  2  7  2  0  0  0  0
  2  8  1  0  0  0  0
  3  4  1  0  0  0  0
  3  9  1  0  0  0  0
  3 10  1  0  0  0  0
  5  6  1  0  0  0  0
  5 12  2  0  0  0  0
  7 12  1  0  0  0  0
  7 13  1  0  0  0  0
  8 14  2  0  0  0  0
  9 16  1  0  0  0  0
 10 11  1  0  0  0  0
 10 18  1  0  0  0  0
 10 20  1  0  0  0  0
 13 22  2  0  0  0  0
 13 23  1  0  0  0  0
 14 15  1  0  0  0  0
 14 22  1  0  0  0  0
 16 17  1  0  0  0  0
 16 18  1  0  0  0  0
 16 26  1  0  0  0  0
 18 19  1  0  0  0  0
 18 29  1  0  0  0  0
 20 21  1  0  0  0  0
 23 24  1  0  0  0  0
 23 25  1  0  0  0  0
 26 27  1  0  0  0  0
 26 28  1  0  0  0  0
 26 31  1  0  0  0  0
 29 30  1  0  0  0  0
 31 32  1  0  0  0  0
 32 33  1  0  0  0  0
 32 34  2  0  0  0  0
 32 35  1  0  0  0  0
 33 36  1  0  0  0  0
 36 37  1  0  0  0  0
 36 39  2  0  0  0  0
 36 40  2  0  0  0  0
 37 38  1  0  0  0  0
M  END
> <ConfClashScore>
0 

> <ConfOneFourInteractionScore>
-0.97979 

> <ConfScore>
-0.234624 

> <ConfScorePBest>
0.00696147 

> <ConfTolerance>
1.08378 

$$$$
ChEBI.****
  PyMOL2.5          3D                             0

 40 42  0  0  0  0  0  0  0  0999 V2000
    9.6146   -9.8660   -2.4213 N   0  0  0  1  0  0  0  0  0  0  0  0
    9.7272   -8.4997   -2.4079 C   0  0  0  1  0  0  0  0  0  0  0  0
    8.7074  -10.6875   -1.6114 C   0  0  0  1  0  0  0  0  0  0  0  0
    7.6939  -10.4333   -1.8416 H   0  0  0  1  0  0  0  0  0  0  0  0
   10.5184  -10.3014   -3.3413 C   0  0  0  1  0  0  0  0  0  0  0  0
   10.6459  -11.3087   -3.5666 H   0  0  0  1  0  0  0  0  0  0  0  0
   10.7258   -8.1967   -3.3432 C   0  0  0  1  0  0  0  0  0  0  0  0
    9.0479   -7.6310   -1.6576 N   0  0  0  1  0  0  0  0  0  0  0  0
    8.9402  -12.0517   -1.8346 O   0  0  0  1  0  0  0  0  0  0  0  0
    8.9899  -10.4952   -0.1143 C   0  0  0  1  0  0  0  0  0  0  0  0
   10.0329  -10.3368    0.0642 H   0  0  0  1  0  0  0  0  0  0  0  0
   11.2130   -9.3595   -3.9194 N   0  0  0  1  0  0  0  0  0  0  0  0
   11.0223   -6.8445   -3.4868 C   0  0  0  1  0  0  0  0  0  0  0  0
    9.4253   -6.3822   -1.9026 C   0  0  0  1  0  0  0  0  0  0  0  0
    8.9330   -5.6479   -1.3548 H   0  0  0  1  0  0  0  0  0  0  0  0
    8.8701  -12.8195   -0.6120 C   0  0  0  1  0  0  0  0  0  0  0  0
    8.1065  -13.5659   -0.6805 H   0  0  0  1  0  0  0  0  0  0  0  0
    8.5294  -11.8005    0.4795 C   0  0  0  1  0  0  0  0  0  0  0  0
    9.0566  -12.0174    1.3850 H   0  0  0  1  0  0  0  0  0  0  0  0
    8.2437   -9.3977    0.4136 O   0  0  0  1  0  0  0  0  0  0  0  0
    8.7237   -8.5805    0.2603 H   0  0  0  1  0  0  0  0  0  0  0  0
   10.3565   -5.9391   -2.7619 N   0  0  0  1  0  0  0  0  0  0  0  0
   11.9802   -6.3112   -4.3423 N   0  0  0  1  0  0  0  0  0  0  0  0
   12.0978   -5.3401   -4.4018 H   0  0  0  1  0  0  0  0  0  0  0  0
   12.5377   -6.9065   -4.8858 H   0  0  0  1  0  0  0  0  0  0  0  0
   10.1823  -13.4733   -0.3276 C   0  0  0  1  0  0  0  0  0  0  0  0
   10.3355  -14.2908   -1.0008 H   0  0  0  1  0  0  0  0  0  0  0  0
   10.1996  -13.8324    0.6802 H   0  0  0  1  0  0  0  0  0  0  0  0
    7.1251  -11.7782    0.7391 O   0  0  0  1  0  0  0  0  0  0  0  0
    6.7846  -12.6758    0.7380 H   0  0  0  1  0  0  0  0  0  0  0  0
   11.2177  -12.4800   -0.5148 O   0  0  0  1  0  0  0  0  0  0  0  0
   12.8029  -12.8922   -0.4322 P   0  0  0  1  0  0  0  0  0  0  0  0
   13.2376  -12.9555    1.1852 O   0  0  0  1  0  0  0  0  0  0  0  0
   13.1882  -14.2142   -0.9746 O   0  0  0  1  0  0  0  0  0  0  0  0
   13.6996  -11.7123   -1.0866 O   0  5  0  1  0  0  0  0  0  0  0  0
   12.6095  -12.6342    2.5727 S   0  0  0  1  0  0  0  0  0  0  0  0
   12.9801  -11.2971    2.9236 O   0  0  0  1  0  0  0  0  0  0  0  0
   12.4462  -10.6750    2.4242 H   0  0  0  1  0  0  0  0  0  0  0  0
   11.2268  -12.7798    2.2977 O   0  0  0  1  0  0  0  0  0  0  0  0
   13.1182  -13.5624    3.5111 O   0  0  0  1  0  0  0  0  0  0  0  0
  1  2  1  0  0  0  0
  1  3  1  0  0  0  0
  1  5  1  0  0  0  0
  2  7  2  0  0  0  0
  2  8  1  0  0  0  0
  3  4  1  0  0  0  0
  3  9  1  0  0  0  0
  3 10  1  0  0  0  0
  5  6  1  0  0  0  0
  5 12  2  0  0  0  0
  7 12  1  0  0  0  0
  7 13  1  0  0  0  0
  8 14  2  0  0  0  0
  9 16  1  0  0  0  0
 10 11  1  0  0  0  0
 10 18  1  0  0  0  0
 10 20  1  0  0  0  0
 13 22  2  0  0  0  0
 13 23  1  0  0  0  0
 14 15  1  0  0  0  0
 14 22  1  0  0  0  0
 16 17  1  0  0  0  0
 16 18  1  0  0  0  0
 16 26  1  0  0  0  0
 18 19  1  0  0  0  0
 18 29  1  0  0  0  0
 20 21  1  0  0  0  0
 23 24  1  0  0  0  0
 23 25  1  0  0  0  0
 26 27  1  0  0  0  0
 26 28  1  0  0  0  0
 26 31  1  0  0  0  0
 29 30  1  0  0  0  0
 31 32  1  0  0  0  0
 32 33  1  0  0  0  0
 32 34  2  0  0  0  0
 32 35  1  0  0  0  0
 33 36  1  0  0  0  0
 36 37  1  0  0  0  0
 36 39  2  0  0  0  0
 36 40  2  0  0  0  0
 37 38  1  0  0  0  0
M  END
> <ConfClashScore>
0 

> <ConfOneFourInteractionScore>
-0.988561 

> <ConfScore>
-0.226 

> <ConfScorePBest>
0.00685847 

> <ConfTolerance>
1.00432 

$$$$
ChEBI.****
  PyMOL2.5          3D                             0

 40 42  0  0  0  0  0  0  0  0999 V2000
    9.6164   -9.8516   -2.4315 N   0  0  0  1  0  0  0  0  0  0  0  0
    9.7283   -8.4854   -2.4076 C   0  0  0  1  0  0  0  0  0  0  0  0
    8.7277  -10.7305   -1.6464 C   0  0  0  1  0  0  0  0  0  0  0  0
    7.7080  -10.5182   -1.8913 H   0  0  0  1  0  0  0  0  0  0  0  0
   10.5180  -10.2792   -3.3573 C   0  0  0  1  0  0  0  0  0  0  0  0
   10.6454  -11.2846   -3.5909 H   0  0  0  1  0  0  0  0  0  0  0  0
   10.7243   -8.1745   -3.3430 C   0  0  0  1  0  0  0  0  0  0  0  0
    9.0506   -7.6230   -1.6486 N   0  0  0  1  0  0  0  0  0  0  0  0
    9.0150  -12.0711   -1.9287 O   0  0  0  1  0  0  0  0  0  0  0  0
    8.9619  -10.5019   -0.1447 C   0  0  0  1  0  0  0  0  0  0  0  0
    9.5033   -9.5952    0.0274 H   0  0  0  1  0  0  0  0  0  0  0  0
   11.2106   -9.3325   -3.9297 N   0  0  0  1  0  0  0  0  0  0  0  0
   11.0198   -6.8210   -3.4767 C   0  0  0  1  0  0  0  0  0  0  0  0
    9.4267   -6.3721   -1.8846 C   0  0  0  1  0  0  0  0  0  0  0  0
    8.9355   -5.6425   -1.3297 H   0  0  0  1  0  0  0  0  0  0  0  0
    9.3313  -12.7985   -0.7029 C   0  0  0  1  0  0  0  0  0  0  0  0
    8.4644  -13.2988   -0.3247 H   0  0  0  1  0  0  0  0  0  0  0  0
    9.7932  -11.7273    0.2582 C   0  0  0  1  0  0  0  0  0  0  0  0
   10.8393  -11.5346    0.1420 H   0  0  0  1  0  0  0  0  0  0  0  0
    7.7252  -10.4617    0.5689 O   0  0  0  1  0  0  0  0  0  0  0  0
    7.0581  -10.0302    0.0299 H   0  0  0  1  0  0  0  0  0  0  0  0
   10.3555   -5.9217   -2.7429 N   0  0  0  1  0  0  0  0  0  0  0  0
   11.9705   -6.3478   -4.3334 N   0  0  0  1  0  0  0  0  0  0  0  0
   12.0643   -5.3828   -4.4766 H   0  0  0  1  0  0  0  0  0  0  0  0
   12.5595   -6.9727   -4.8055 H   0  0  0  1  0  0  0  0  0  0  0  0
   10.4164  -13.7956   -0.9447 C   0  0  0  1  0  0  0  0  0  0  0  0
   10.6127  -14.3452   -0.0479 H   0  0  0  1  0  0  0  0  0  0  0  0
   11.3081  -13.2947   -1.2591 H   0  0  0  1  0  0  0  0  0  0  0  0
    9.5250  -12.1040    1.6096 O   0  0  0  1  0  0  0  0  0  0  0  0
    8.6919  -12.5793    1.6504 H   0  0  0  1  0  0  0  0  0  0  0  0
    9.9635  -14.6944   -1.9844 O   0  0  0  1  0  0  0  0  0  0  0  0
    9.5284  -16.2359   -1.6324 P   0  0  0  1  0  0  0  0  0  0  0  0
    9.4147  -17.0786   -3.0767 O   0  0  0  1  0  0  0  0  0  0  0  0
   10.4752  -16.9224   -0.7255 O   0  0  0  1  0  0  0  0  0  0  0  0
    7.9774  -16.3219   -1.1724 O   0  5  0  1  0  0  0  0  0  0  0  0
   10.3248  -18.0971   -3.9705 S   0  0  0  1  0  0  0  0  0  0  0  0
    9.5836  -18.1741   -5.1856 O   0  0  0  1  0  0  0  0  0  0  0  0
    9.7648  -17.3982   -5.7212 H   0  0  0  1  0  0  0  0  0  0  0  0
   11.5095  -17.3312   -3.9664 O   0  0  0  1  0  0  0  0  0  0  0  0
   10.4760  -19.3646   -3.3404 O   0  0  0  1  0  0  0  0  0  0  0  0
  1  2  1  0  0  0  0
  1  3  1  0  0  0  0
  1  5  1  0  0  0  0
  2  7  2  0  0  0  0
  2  8  1  0  0  0  0
  3  4  1  0  0  0  0
  3  9  1  0  0  0  0
  3 10  1  0  0  0  0
  5  6  1  0  0  0  0
  5 12  2  0  0  0  0
  7 12  1  0  0  0  0
  7 13  1  0  0  0  0
  8 14  2  0  0  0  0
  9 16  1  0  0  0  0
 10 11  1  0  0  0  0
 10 18  1  0  0  0  0
 10 20  1  0  0  0  0
 13 22  2  0  0  0  0
 13 23  1  0  0  0  0
 14 15  1  0  0  0  0
 14 22  1  0  0  0  0
 16 17  1  0  0  0  0
 16 18  1  0  0  0  0
 16 26  1  0  0  0  0
 18 19  1  0  0  0  0
 18 29  1  0  0  0  0
 20 21  1  0  0  0  0
 23 24  1  0  0  0  0
 23 25  1  0  0  0  0
 26 27  1  0  0  0  0
 26 28  1  0  0  0  0
 26 31  1  0  0  0  0
 29 30  1  0  0  0  0
 31 32  1  0  0  0  0
 32 33  1  0  0  0  0
 32 34  2  0  0  0  0
 32 35  1  0  0  0  0
 33 36  1  0  0  0  0
 36 37  1  0  0  0  0
 36 39  2  0  0  0  0
 36 40  2  0  0  0  0
 37 38  1  0  0  0  0
M  END
> <ConfClashScore>
0 

> <ConfOneFourInteractionScore>
-0.979955 

> <ConfScore>
-0.225688 

> <ConfScorePBest>
0.00675547 

> <ConfTolerance>
0.972939 

$$$$
ChEBI.****
  PyMOL2.5          3D                             0

 40 42  0  0  0  0  0  0  0  0999 V2000
    9.6170   -9.8664   -2.4185 N   0  0  0  1  0  0  0  0  0  0  0  0
    9.7271   -8.4998   -2.4077 C   0  0  0  1  0  0  0  0  0  0  0  0
    8.7121  -10.6859   -1.6102 C   0  0  0  1  0  0  0  0  0  0  0  0
    9.0730  -10.7300   -0.6038 H   0  0  0  1  0  0  0  0  0  0  0  0
   10.5230  -10.3020   -3.3361 C   0  0  0  1  0  0  0  0  0  0  0  0
   10.6527  -11.3095   -3.5592 H   0  0  0  1  0  0  0  0  0  0  0  0
   10.7266   -8.1970   -3.3421 C   0  0  0  1  0  0  0  0  0  0  0  0
    9.0451   -7.6308   -1.6603 N   0  0  0  1  0  0  0  0  0  0  0  0
    7.3546  -10.1499   -1.6496 O   0  0  0  1  0  0  0  0  0  0  0  0
    8.5823  -12.0743   -2.1935 C   0  0  0  1  0  0  0  0  0  0  0  0
    9.4944  -12.3785   -2.6631 H   0  0  0  1  0  0  0  0  0  0  0  0
   11.2168   -9.3601   -3.9151 N   0  0  0  1  0  0  0  0  0  0  0  0
   11.0209   -6.8446   -3.4881 C   0  0  0  1  0  0  0  0  0  0  0  0
    9.4206   -6.3818   -1.9073 C   0  0  0  1  0  0  0  0  0  0  0  0
    8.9261   -5.6473   -1.3618 H   0  0  0  1  0  0  0  0  0  0  0  0
    6.5952  -10.8020   -2.6281 C   0  0  0  1  0  0  0  0  0  0  0  0
    5.7133  -11.2170   -2.1866 H   0  0  0  1  0  0  0  0  0  0  0  0
    7.4571  -11.9252   -3.2262 C   0  0  0  1  0  0  0  0  0  0  0  0
    7.8462  -11.6448   -4.1827 H   0  0  0  1  0  0  0  0  0  0  0  0
    8.2269  -13.0207   -1.1845 O   0  0  0  1  0  0  0  0  0  0  0  0
    7.8312  -12.5618   -0.4398 H   0  0  0  1  0  0  0  0  0  0  0  0
   10.3523   -5.9388   -2.7661 N   0  0  0  1  0  0  0  0  0  0  0  0
   11.9792   -6.3113   -4.3432 N   0  0  0  1  0  0  0  0  0  0  0  0
   12.1297   -5.3432   -4.3676 H   0  0  0  1  0  0  0  0  0  0  0  0
   12.5039   -6.9035   -4.9214 H   0  0  0  1  0  0  0  0  0  0  0  0
    6.2072   -9.8299   -3.7037 C   0  0  0  1  0  0  0  0  0  0  0  0
    7.0738   -9.4159   -4.1753 H   0  0  0  1  0  0  0  0  0  0  0  0
    5.6053   -9.0398   -3.3056 H   0  0  0  1  0  0  0  0  0  0  0  0
    6.7091  -13.1373   -3.3519 O   0  0  0  1  0  0  0  0  0  0  0  0
    7.3022  -13.8581   -3.5763 H   0  0  0  1  0  0  0  0  0  0  0  0
    5.4492  -10.6385   -4.6339 O   0  0  0  1  0  0  0  0  0  0  0  0
    4.6503   -9.9496   -5.8896 P   0  0  0  1  0  0  0  0  0  0  0  0
    3.2880  -10.9027   -6.1011 O   0  0  0  1  0  0  0  0  0  0  0  0
    4.2642   -8.5712   -5.5135 O   0  0  0  1  0  0  0  0  0  0  0  0
    5.5415  -10.0656   -7.2375 O   0  5  0  1  0  0  0  0  0  0  0  0
    2.5454  -12.1139   -5.3587 S   0  0  0  1  0  0  0  0  0  0  0  0
    3.5540  -12.8161   -4.5928 O   0  0  0  1  0  0  0  0  0  0  0  0
    3.3154  -13.7433   -4.5229 H   0  0  0  1  0  0  0  0  0  0  0  0
    1.6052  -11.3938   -4.5359 O   0  0  0  1  0  0  0  0  0  0  0  0
    1.9554  -12.9328   -6.3761 O   0  0  0  1  0  0  0  0  0  0  0  0
  1  2  1  0  0  0  0
  1  3  1  0  0  0  0
  1  5  1  0  0  0  0
  2  7  2  0  0  0  0
  2  8  1  0  0  0  0
  3  4  1  0  0  0  0
  3  9  1  0  0  0  0
  3 10  1  0  0  0  0
  5  6  1  0  0  0  0
  5 12  2  0  0  0  0
  7 12  1  0  0  0  0
  7 13  1  0  0  0  0
  8 14  2  0  0  0  0
  9 16  1  0  0  0  0
 10 11  1  0  0  0  0
 10 18  1  0  0  0  0
 10 20  1  0  0  0  0
 13 22  2  0  0  0  0
 13 23  1  0  0  0  0
 14 15  1  0  0  0  0
 14 22  1  0  0  0  0
 16 17  1  0  0  0  0
 16 18  1  0  0  0  0
 16 26  1  0  0  0  0
 18 19  1  0  0  0  0
 18 29  1  0  0  0  0
 20 21  1  0  0  0  0
 23 24  1  0  0  0  0
 23 25  1  0  0  0  0
 26 27  1  0  0  0  0
 26 28  1  0  0  0  0
 26 31  1  0  0  0  0
 29 30  1  0  0  0  0
 31 32  1  0  0  0  0
 32 33  1  0  0  0  0
 32 34  2  0  0  0  0
 32 35  1  0  0  0  0
 33 36  1  0  0  0  0
 36 37  1  0  0  0  0
 36 39  2  0  0  0  0
 36 40  2  0  0  0  0
 37 38  1  0  0  0  0
M  END
> <ConfClashScore>
0 

> <ConfOneFourInteractionScore>
-0.975472 

> <ConfScore>
-0.221071 

> <ConfScorePBest>
0.00665247 

> <ConfTolerance>
1.16364 

$$$$
ChEBI.****
  PyMOL2.5          3D                             0

 40 42  0  0  0  0  0  0  0  0999 V2000
    9.6255   -9.8630   -2.4036 N   0  0  0  1  0  0  0  0  0  0  0  0
    9.7359   -8.4965   -2.3956 C   0  0  0  1  0  0  0  0  0  0  0  0
    8.6677  -10.7167   -1.6738 C   0  0  0  1  0  0  0  0  0  0  0  0
    7.6685  -10.4314   -1.9291 H   0  0  0  1  0  0  0  0  0  0  0  0
   10.5242  -10.3001   -3.3278 C   0  0  0  1  0  0  0  0  0  0  0  0
   10.6520  -11.3079   -3.5504 H   0  0  0  1  0  0  0  0  0  0  0  0
   10.7280   -8.1951   -3.3382 C   0  0  0  1  0  0  0  0  0  0  0  0
    9.0599   -7.6264   -1.6440 N   0  0  0  1  0  0  0  0  0  0  0  0
    8.8921  -12.1106   -1.9836 O   0  0  0  1  0  0  0  0  0  0  0  0
    8.8897  -10.6035   -0.1627 C   0  0  0  1  0  0  0  0  0  0  0  0
    9.8852  -10.2774    0.0556 H   0  0  0  1  0  0  0  0  0  0  0  0
   11.2135   -9.3591   -3.9135 N   0  0  0  1  0  0  0  0  0  0  0  0
   11.0214   -6.8429   -3.4884 C   0  0  0  1  0  0  0  0  0  0  0  0
    9.4336   -6.3778   -1.8957 C   0  0  0  1  0  0  0  0  0  0  0  0
    8.9436   -5.6424   -1.3473 H   0  0  0  1  0  0  0  0  0  0  0  0
    9.1991  -12.8594   -0.8390 C   0  0  0  1  0  0  0  0  0  0  0  0
    8.7133  -13.8124   -0.8680 H   0  0  0  1  0  0  0  0  0  0  0  0
    8.6635  -12.0110    0.3234 C   0  0  0  1  0  0  0  0  0  0  0  0
    9.2102  -12.2009    1.2234 H   0  0  0  1  0  0  0  0  0  0  0  0
    7.9524   -9.7011    0.4267 O   0  0  0  1  0  0  0  0  0  0  0  0
    7.6515  -10.0551    1.2667 H   0  0  0  1  0  0  0  0  0  0  0  0
   10.3586   -5.9361   -2.7624 N   0  0  0  1  0  0  0  0  0  0  0  0
   11.9729   -6.3109   -4.3518 N   0  0  0  1  0  0  0  0  0  0  0  0
   12.0978   -5.3404   -4.4053 H   0  0  0  1  0  0  0  0  0  0  0  0
   12.5186   -6.9066   -4.9067 H   0  0  0  1  0  0  0  0  0  0  0  0
   10.6568  -13.0532   -0.7165 C   0  0  0  1  0  0  0  0  0  0  0  0
   11.0254  -13.5241   -1.6037 H   0  0  0  1  0  0  0  0  0  0  0  0
   10.8595  -13.6765    0.1293 H   0  0  0  1  0  0  0  0  0  0  0  0
    7.2752  -12.2617    0.5470 O   0  0  0  1  0  0  0  0  0  0  0  0
    6.7824  -12.0735   -0.2550 H   0  0  0  1  0  0  0  0  0  0  0  0
   11.3177  -11.7897   -0.5422 O   0  0  0  1  0  0  0  0  0  0  0  0
   12.7825  -11.3924   -1.1635 P   0  0  0  1  0  0  0  0  0  0  0  0
   13.9851  -12.3693   -0.5244 O   0  0  0  1  0  0  0  0  0  0  0  0
   12.8963  -11.4668   -2.6372 O   0  0  0  1  0  0  0  0  0  0  0  0
   13.0714   -9.8866   -0.6405 O   0  5  0  1  0  0  0  0  0  0  0  0
   14.5484  -12.7974    0.9261 S   0  0  0  1  0  0  0  0  0  0  0  0
   14.0219  -11.8306    1.8693 O   0  0  0  1  0  0  0  0  0  0  0  0
   13.2388  -11.4160    1.4997 H   0  0  0  1  0  0  0  0  0  0  0  0
   14.1062  -14.1297    1.1541 O   0  0  0  1  0  0  0  0  0  0  0  0
   15.9288  -12.6224    0.6396 O   0  0  0  1  0  0  0  0  0  0  0  0
  1  2  1  0  0  0  0
  1  3  1  0  0  0  0
  1  5  1  0  0  0  0
  2  7  2  0  0  0  0
  2  8  1  0  0  0  0
  3  4  1  0  0  0  0
  3  9  1  0  0  0  0
  3 10  1  0  0  0  0
  5  6  1  0  0  0  0
  5 12  2  0  0  0  0
  7 12  1  0  0  0  0
  7 13  1  0  0  0  0
  8 14  2  0  0  0  0
  9 16  1  0  0  0  0
 10 11  1  0  0  0  0
 10 18  1  0  0  0  0
 10 20  1  0  0  0  0
 13 22  2  0  0  0  0
 13 23  1  0  0  0  0
 14 15  1  0  0  0  0
 14 22  1  0  0  0  0
 16 17  1  0  0  0  0
 16 18  1  0  0  0  0
 16 26  1  0  0  0  0
 18 19  1  0  0  0  0
 18 29  1  0  0  0  0
 20 21  1  0  0  0  0
 23 24  1  0  0  0  0
 23 25  1  0  0  0  0
 26 27  1  0  0  0  0
 26 28  1  0  0  0  0
 26 31  1  0  0  0  0
 29 30  1  0  0  0  0
 31 32  1  0  0  0  0
 32 33  1  0  0  0  0
 32 34  2  0  0  0  0
 32 35  1  0  0  0  0
 33 36  1  0  0  0  0
 36 37  1  0  0  0  0
 36 39  2  0  0  0  0
 36 40  2  0  0  0  0
 37 38  1  0  0  0  0
M  END
> <ConfClashScore>
0 

> <ConfOneFourInteractionScore>
-0.98755 

> <ConfScore>
-0.220271 

> <ConfScorePBest>
0.00654947 

> <ConfTolerance>
1.1098 

$$$$
ChEBI.****
  PyMOL2.5          3D                             0

 40 42  0  0  0  0  0  0  0  0999 V2000
    9.6355   -9.8681   -2.4008 N   0  0  0  1  0  0  0  0  0  0  0  0
    9.7377   -8.5008   -2.3979 C   0  0  0  1  0  0  0  0  0  0  0  0
    8.6603  -10.6837   -1.6508 C   0  0  0  1  0  0  0  0  0  0  0  0
    8.8682  -10.6155   -0.6034 H   0  0  0  1  0  0  0  0  0  0  0  0
   10.5409  -10.3035   -3.3192 C   0  0  0  1  0  0  0  0  0  0  0  0
   10.6757  -11.3114   -3.5371 H   0  0  0  1  0  0  0  0  0  0  0  0
   10.7322   -8.1973   -3.3373 C   0  0  0  1  0  0  0  0  0  0  0  0
    9.0532   -7.6318   -1.6528 N   0  0  0  1  0  0  0  0  0  0  0  0
    7.3574  -10.2509   -1.9171 O   0  0  0  1  0  0  0  0  0  0  0  0
    8.7205  -12.1481   -2.1134 C   0  0  0  1  0  0  0  0  0  0  0  0
    9.7117  -12.4181   -2.4126 H   0  0  0  1  0  0  0  0  0  0  0  0
   11.2272   -9.3607   -3.9057 N   0  0  0  1  0  0  0  0  0  0  0  0
   11.0180   -6.8440   -3.4918 C   0  0  0  1  0  0  0  0  0  0  0  0
    9.4205   -6.3820   -1.9079 C   0  0  0  1  0  0  0  0  0  0  0  0
    8.9237   -5.6474   -1.3647 H   0  0  0  1  0  0  0  0  0  0  0  0
    6.7299  -11.0783   -2.9129 C   0  0  0  1  0  0  0  0  0  0  0  0
    5.8489  -11.5351   -2.5130 H   0  0  0  1  0  0  0  0  0  0  0  0
    7.7683  -12.1614   -3.2962 C   0  0  0  1  0  0  0  0  0  0  0  0
    8.2761  -11.9048   -4.2025 H   0  0  0  1  0  0  0  0  0  0  0  0
    8.2757  -13.0325   -1.0837 O   0  0  0  1  0  0  0  0  0  0  0  0
    8.1405  -12.5375   -0.2724 H   0  0  0  1  0  0  0  0  0  0  0  0
   10.3467   -5.9383   -2.7724 N   0  0  0  1  0  0  0  0  0  0  0  0
   11.9702   -6.3098   -4.3531 N   0  0  0  1  0  0  0  0  0  0  0  0
   12.1759   -5.3522   -4.3229 H   0  0  0  1  0  0  0  0  0  0  0  0
   12.4355   -6.8911   -4.9904 H   0  0  0  1  0  0  0  0  0  0  0  0
    6.3730  -10.2717   -4.0959 C   0  0  0  1  0  0  0  0  0  0  0  0
    5.6606   -9.5256   -3.8117 H   0  0  0  1  0  0  0  0  0  0  0  0
    5.9445  -10.9093   -4.8408 H   0  0  0  1  0  0  0  0  0  0  0  0
    7.1480  -13.4397   -3.4428 O   0  0  0  1  0  0  0  0  0  0  0  0
    7.6409  -14.0943   -2.9427 H   0  0  0  1  0  0  0  0  0  0  0  0
    7.5479   -9.6259   -4.6401 O   0  0  0  1  0  0  0  0  0  0  0  0
    7.5172   -8.1344   -5.3213 P   0  0  0  1  0  0  0  0  0  0  0  0
    6.6739   -8.3759   -6.7494 O   0  0  0  1  0  0  0  0  0  0  0  0
    6.8014   -7.1742   -4.4518 O   0  0  0  1  0  0  0  0  0  0  0  0
    9.0448   -7.8010   -5.7452 O   0  5  0  1  0  0  0  0  0  0  0  0
    5.9380   -7.4804   -7.8989 S   0  0  0  1  0  0  0  0  0  0  0  0
    7.0419   -6.8374   -8.5310 O   0  0  0  1  0  0  0  0  0  0  0  0
    7.3125   -7.3463   -9.2987 H   0  0  0  1  0  0  0  0  0  0  0  0
    5.3124   -8.5438   -8.5829 O   0  0  0  1  0  0  0  0  0  0  0  0
    5.0130   -6.5548   -7.3384 O   0  0  0  1  0  0  0  0  0  0  0  0
  1  2  1  0  0  0  0
  1  3  1  0  0  0  0
  1  5  1  0  0  0  0
  2  7  2  0  0  0  0
  2  8  1  0  0  0  0
  3  4  1  0  0  0  0
  3  9  1  0  0  0  0
  3 10  1  0  0  0  0
  5  6  1  0  0  0  0
  5 12  2  0  0  0  0
  7 12  1  0  0  0  0
  7 13  1  0  0  0  0
  8 14  2  0  0  0  0
  9 16  1  0  0  0  0
 10 11  1  0  0  0  0
 10 18  1  0  0  0  0
 10 20  1  0  0  0  0
 13 22  2  0  0  0  0
 13 23  1  0  0  0  0
 14 15  1  0  0  0  0
 14 22  1  0  0  0  0
 16 17  1  0  0  0  0
 16 18  1  0  0  0  0
 16 26  1  0  0  0  0
 18 19  1  0  0  0  0
 18 29  1  0  0  0  0
 20 21  1  0  0  0  0
 23 24  1  0  0  0  0
 23 25  1  0  0  0  0
 26 27  1  0  0  0  0
 26 28  1  0  0  0  0
 26 31  1  0  0  0  0
 29 30  1  0  0  0  0
 31 32  1  0  0  0  0
 32 33  1  0  0  0  0
 32 34  2  0  0  0  0
 32 35  1  0  0  0  0
 33 36  1  0  0  0  0
 36 37  1  0  0  0  0
 36 39  2  0  0  0  0
 36 40  2  0  0  0  0
 37 38  1  0  0  0  0
M  END
> <ConfClashScore>
0 

> <ConfOneFourInteractionScore>
-0.985924 

> <ConfScore>
-0.214576 

> <ConfScorePBest>
0.00644647 

> <ConfTolerance>
1.54458 

$$$$
ChEBI.****
  PyMOL2.5          3D                             0

 40 42  0  0  0  0  0  0  0  0999 V2000
    9.6139   -9.8562   -2.4404 N   0  0  0  1  0  0  0  0  0  0  0  0
    9.7192   -8.4894   -2.4197 C   0  0  0  1  0  0  0  0  0  0  0  0
    8.7734  -10.7011   -1.5695 C   0  0  0  1  0  0  0  0  0  0  0  0
    9.1527  -11.7016   -1.5686 H   0  0  0  1  0  0  0  0  0  0  0  0
   10.5284  -10.2827   -3.3539 C   0  0  0  1  0  0  0  0  0  0  0  0
   10.6633  -11.2882   -3.5826 H   0  0  0  1  0  0  0  0  0  0  0  0
   10.7248   -8.1769   -3.3444 C   0  0  0  1  0  0  0  0  0  0  0  0
    9.0285   -7.6277   -1.6718 N   0  0  0  1  0  0  0  0  0  0  0  0
    8.7636  -10.1745   -0.2294 O   0  0  0  1  0  0  0  0  0  0  0  0
    7.3383  -10.6883   -2.0589 C   0  0  0  1  0  0  0  0  0  0  0  0
    7.2867  -10.4247   -3.0946 H   0  0  0  1  0  0  0  0  0  0  0  0
   11.2234   -9.3346   -3.9213 N   0  0  0  1  0  0  0  0  0  0  0  0
   11.0155   -6.8226   -3.4791 C   0  0  0  1  0  0  0  0  0  0  0  0
    9.4016   -6.3758   -1.9076 C   0  0  0  1  0  0  0  0  0  0  0  0
    8.9004   -5.6466   -1.3611 H   0  0  0  1  0  0  0  0  0  0  0  0
    7.4242   -9.8167    0.1295 C   0  0  0  1  0  0  0  0  0  0  0  0
    6.9665  -10.5995    0.6974 H   0  0  0  1  0  0  0  0  0  0  0  0
    6.6962   -9.6203   -1.1897 C   0  0  0  1  0  0  0  0  0  0  0  0
    6.8656   -8.6411   -1.5864 H   0  0  0  1  0  0  0  0  0  0  0  0
    6.7152  -11.9579   -1.8585 O   0  0  0  1  0  0  0  0  0  0  0  0
    7.2811  -12.5103   -1.3143 H   0  0  0  1  0  0  0  0  0  0  0  0
   10.3383   -5.9239   -2.7563 N   0  0  0  1  0  0  0  0  0  0  0  0
   11.9780   -6.3458   -4.3295 N   0  0  0  1  0  0  0  0  0  0  0  0
   12.1762   -5.3864   -4.3567 H   0  0  0  1  0  0  0  0  0  0  0  0
   12.4684   -6.9641   -4.9106 H   0  0  0  1  0  0  0  0  0  0  0  0
    7.4155   -8.5530    0.9251 C   0  0  0  1  0  0  0  0  0  0  0  0
    6.4074   -8.2499    1.1166 H   0  0  0  1  0  0  0  0  0  0  0  0
    7.9248   -7.7806    0.3877 H   0  0  0  1  0  0  0  0  0  0  0  0
    5.2921   -9.8405   -1.0469 O   0  0  0  1  0  0  0  0  0  0  0  0
    5.0316   -9.6690   -0.1390 H   0  0  0  1  0  0  0  0  0  0  0  0
    8.0968   -8.8157    2.1744 O   0  0  0  1  0  0  0  0  0  0  0  0
    9.5225   -8.0593    2.4660 P   0  0  0  1  0  0  0  0  0  0  0  0
   10.3359   -9.1581    3.3382 O   0  0  0  1  0  0  0  0  0  0  0  0
   10.1570   -7.5868    1.2152 O   0  0  0  1  0  0  0  0  0  0  0  0
    9.2380   -6.9235    3.5855 O   0  5  0  1  0  0  0  0  0  0  0  0
    9.8045  -10.6760    3.6560 S   0  0  0  1  0  0  0  0  0  0  0  0
    8.9600  -10.5371    4.8041 O   0  0  0  1  0  0  0  0  0  0  0  0
    8.2877   -9.8746    4.6291 H   0  0  0  1  0  0  0  0  0  0  0  0
    9.1041  -10.9781    2.4485 O   0  0  0  1  0  0  0  0  0  0  0  0
   10.9903  -11.4359    3.8724 O   0  0  0  1  0  0  0  0  0  0  0  0
  1  2  1  0  0  0  0
  1  3  1  0  0  0  0
  1  5  1  0  0  0  0
  2  7  2  0  0  0  0
  2  8  1  0  0  0  0
  3  4  1  0  0  0  0
  3  9  1  0  0  0  0
  3 10  1  0  0  0  0
  5  6  1  0  0  0  0
  5 12  2  0  0  0  0
  7 12  1  0  0  0  0
  7 13  1  0  0  0  0
  8 14  2  0  0  0  0
  9 16  1  0  0  0  0
 10 11  1  0  0  0  0
 10 18  1  0  0  0  0
 10 20  1  0  0  0  0
 13 22  2  0  0  0  0
 13 23  1  0  0  0  0
 14 15  1  0  0  0  0
 14 22  1  0  0  0  0
 16 17  1  0  0  0  0
 16 18  1  0  0  0  0
 16 26  1  0  0  0  0
 18 19  1  0  0  0  0
 18 29  1  0  0  0  0
 20 21  1  0  0  0  0
 23 24  1  0  0  0  0
 23 25  1  0  0  0  0
 26 27  1  0  0  0  0
 26 28  1  0  0  0  0
 26 31  1  0  0  0  0
 29 30  1  0  0  0  0
 31 32  1  0  0  0  0
 32 33  1  0  0  0  0
 32 34  2  0  0  0  0
 32 35  1  0  0  0  0
 33 36  1  0  0  0  0
 36 37  1  0  0  0  0
 36 39  2  0  0  0  0
 36 40  2  0  0  0  0
 37 38  1  0  0  0  0
M  END
> <ConfClashScore>
0 

> <ConfOneFourInteractionScore>
-0.977742 

> <ConfScore>
-0.212164 

> <ConfScorePBest>
0.00634346 

> <ConfTolerance>
1.30814 

$$$$
ChEBI.****
  PyMOL2.5          3D                             0

 40 42  0  0  0  0  0  0  0  0999 V2000
    9.6175   -9.8636   -2.4210 N   0  0  0  1  0  0  0  0  0  0  0  0
    9.7272   -8.4971   -2.4077 C   0  0  0  1  0  0  0  0  0  0  0  0
    8.7184  -10.7464   -1.6239 C   0  0  0  1  0  0  0  0  0  0  0  0
    8.9870  -11.7694   -1.7859 H   0  0  0  1  0  0  0  0  0  0  0  0
   10.5231  -10.2973   -3.3399 C   0  0  0  1  0  0  0  0  0  0  0  0
   10.6529  -11.3044   -3.5649 H   0  0  0  1  0  0  0  0  0  0  0  0
   10.7261   -8.1922   -3.3420 C   0  0  0  1  0  0  0  0  0  0  0  0
    9.0454   -7.6297   -1.6582 N   0  0  0  1  0  0  0  0  0  0  0  0
    8.7872  -10.4247   -0.2613 O   0  0  0  1  0  0  0  0  0  0  0  0
    7.2486  -10.5043   -1.9965 C   0  0  0  1  0  0  0  0  0  0  0  0
    7.0765   -9.4767   -2.2400 H   0  0  0  1  0  0  0  0  0  0  0  0
   11.2163   -9.3541   -3.9176 N   0  0  0  1  0  0  0  0  0  0  0  0
   11.0200   -6.8394   -3.4857 C   0  0  0  1  0  0  0  0  0  0  0  0
    9.4205   -6.3801   -1.9030 C   0  0  0  1  0  0  0  0  0  0  0  0
    8.9262   -5.6468   -1.3558 H   0  0  0  1  0  0  0  0  0  0  0  0
    7.4882  -10.4694    0.3711 C   0  0  0  1  0  0  0  0  0  0  0  0
    7.4828  -11.1834    1.1680 H   0  0  0  1  0  0  0  0  0  0  0  0
    6.5198  -10.8932   -0.7371 C   0  0  0  1  0  0  0  0  0  0  0  0
    5.5898  -10.3704   -0.6548 H   0  0  0  1  0  0  0  0  0  0  0  0
    6.8535  -11.3273   -3.0950 O   0  0  0  1  0  0  0  0  0  0  0  0
    6.4662  -12.1406   -2.7632 H   0  0  0  1  0  0  0  0  0  0  0  0
   10.3516   -5.9352   -2.7615 N   0  0  0  1  0  0  0  0  0  0  0  0
   11.9776   -6.3043   -4.3403 N   0  0  0  1  0  0  0  0  0  0  0  0
   12.5413   -6.8987   -4.8783 H   0  0  0  1  0  0  0  0  0  0  0  0
   12.0888   -5.3327   -4.4047 H   0  0  0  1  0  0  0  0  0  0  0  0
    7.1282   -9.1602    0.8902 C   0  0  0  1  0  0  0  0  0  0  0  0
    7.8408   -8.8815    1.6381 H   0  0  0  1  0  0  0  0  0  0  0  0
    6.1548   -9.2231    1.3302 H   0  0  0  1  0  0  0  0  0  0  0  0
    6.2805  -12.3008   -0.6975 O   0  0  0  1  0  0  0  0  0  0  0  0
    6.9299  -12.7517   -1.2421 H   0  0  0  1  0  0  0  0  0  0  0  0
    7.1077   -8.1439   -0.1249 O   0  0  0  1  0  0  0  0  0  0  0  0
    6.2294   -6.7603   -0.0635 P   0  0  0  1  0  0  0  0  0  0  0  0
    4.6176   -7.2018    0.0637 O   0  0  0  1  0  0  0  0  0  0  0  0
    6.7656   -5.8908    1.0074 O   0  0  0  1  0  0  0  0  0  0  0  0
    6.4016   -6.1262   -1.5443 O   0  5  0  1  0  0  0  0  0  0  0  0
    3.6158   -8.2808   -0.5724 S   0  0  0  1  0  0  0  0  0  0  0  0
    3.5251   -9.3558    0.3904 O   0  0  0  1  0  0  0  0  0  0  0  0
    3.4957   -8.9899    1.2774 H   0  0  0  1  0  0  0  0  0  0  0  0
    2.4139   -7.5117   -0.7276 O   0  0  0  1  0  0  0  0  0  0  0  0
    4.2178   -8.7043   -1.8110 O   0  0  0  1  0  0  0  0  0  0  0  0
  1  2  1  0  0  0  0
  1  3  1  0  0  0  0
  1  5  1  0  0  0  0
  2  7  2  0  0  0  0
  2  8  1  0  0  0  0
  3  4  1  0  0  0  0
  3  9  1  0  0  0  0
  3 10  1  0  0  0  0
  5  6  1  0  0  0  0
  5 12  2  0  0  0  0
  7 12  1  0  0  0  0
  7 13  1  0  0  0  0
  8 14  2  0  0  0  0
  9 16  1  0  0  0  0
 10 11  1  0  0  0  0
 10 18  1  0  0  0  0
 10 20  1  0  0  0  0
 13 22  2  0  0  0  0
 13 23  1  0  0  0  0
 14 15  1  0  0  0  0
 14 22  1  0  0  0  0
 16 17  1  0  0  0  0
 16 18  1  0  0  0  0
 16 26  1  0  0  0  0
 18 19  1  0  0  0  0
 18 29  1  0  0  0  0
 20 21  1  0  0  0  0
 23 24  1  0  0  0  0
 23 25  1  0  0  0  0
 26 27  1  0  0  0  0
 26 28  1  0  0  0  0
 26 31  1  0  0  0  0
 29 30  1  0  0  0  0
 31 32  1  0  0  0  0
 32 33  1  0  0  0  0
 32 34  2  0  0  0  0
 32 35  1  0  0  0  0
 33 36  1  0  0  0  0
 36 37  1  0  0  0  0
 36 39  2  0  0  0  0
 36 40  2  0  0  0  0
 37 38  1  0  0  0  0
M  END
> <ConfClashScore>
0 

> <ConfOneFourInteractionScore>
-0.988194 

> <ConfScore>
-0.211861 

> <ConfScorePBest>
0.00624046 

> <ConfTolerance>
1.4674 

$$$$
ChEBI.****
  PyMOL2.5          3D                             0

 40 42  0  0  0  0  0  0  0  0999 V2000
    9.6262   -9.8591   -2.4329 N   0  0  0  1  0  0  0  0  0  0  0  0
    9.7301   -8.4922   -2.4102 C   0  0  0  1  0  0  0  0  0  0  0  0
    8.7187  -10.6966   -1.6244 C   0  0  0  1  0  0  0  0  0  0  0  0
    7.7037  -10.4429   -1.8488 H   0  0  0  1  0  0  0  0  0  0  0  0
   10.5333  -10.2825   -3.3552 C   0  0  0  1  0  0  0  0  0  0  0  0
   10.6674  -11.2874   -3.5873 H   0  0  0  1  0  0  0  0  0  0  0  0
   10.7273   -8.1766   -3.3428 C   0  0  0  1  0  0  0  0  0  0  0  0
    9.0450   -7.6330   -1.6544 N   0  0  0  1  0  0  0  0  0  0  0  0
    8.9584  -12.0927   -1.8800 O   0  0  0  1  0  0  0  0  0  0  0  0
    8.9979  -10.5111   -0.1517 C   0  0  0  1  0  0  0  0  0  0  0  0
   10.0402  -10.3485    0.0275 H   0  0  0  1  0  0  0  0  0  0  0  0
   11.2222   -9.3324   -3.9266 N   0  0  0  1  0  0  0  0  0  0  0  0
   11.0153   -6.8216   -3.4772 C   0  0  0  1  0  0  0  0  0  0  0  0
    9.4145   -6.3802   -1.8907 C   0  0  0  1  0  0  0  0  0  0  0  0
    8.9173   -5.6527   -1.3383 H   0  0  0  1  0  0  0  0  0  0  0  0
    8.9039  -12.8299   -0.6447 C   0  0  0  1  0  0  0  0  0  0  0  0
    8.1591  -13.5960   -0.7026 H   0  0  0  1  0  0  0  0  0  0  0  0
    8.5423  -11.8267    0.4302 C   0  0  0  1  0  0  0  0  0  0  0  0
    9.0584  -12.0408    1.3427 H   0  0  0  1  0  0  0  0  0  0  0  0
    8.2463   -9.4209    0.3838 O   0  0  0  1  0  0  0  0  0  0  0  0
    7.7656   -9.7143    1.1613 H   0  0  0  1  0  0  0  0  0  0  0  0
   10.3434   -5.9253   -2.7465 N   0  0  0  1  0  0  0  0  0  0  0  0
   11.9698   -6.3418   -4.3348 N   0  0  0  1  0  0  0  0  0  0  0  0
   12.4899   -6.9630   -4.8862 H   0  0  0  1  0  0  0  0  0  0  0  0
   12.1325   -5.3774   -4.3970 H   0  0  0  1  0  0  0  0  0  0  0  0
   10.2318  -13.4469   -0.3512 C   0  0  0  1  0  0  0  0  0  0  0  0
   10.1483  -14.1118    0.4829 H   0  0  0  1  0  0  0  0  0  0  0  0
   10.9473  -12.6830   -0.1289 H   0  0  0  1  0  0  0  0  0  0  0  0
    7.1342  -11.8193    0.6693 O   0  0  0  1  0  0  0  0  0  0  0  0
    6.6788  -11.4881   -0.1082 H   0  0  0  1  0  0  0  0  0  0  0  0
   10.6445  -14.1815   -1.5276 O   0  0  0  1  0  0  0  0  0  0  0  0
   11.5854  -15.5184   -1.3968 P   0  0  0  1  0  0  0  0  0  0  0  0
   10.6766  -16.6282   -0.6405 O   0  0  0  1  0  0  0  0  0  0  0  0
   12.1030  -15.9269   -2.7217 O   0  0  0  1  0  0  0  0  0  0  0  0
   12.8618  -15.1058   -0.4885 O   0  5  0  1  0  0  0  0  0  0  0  0
    9.8994  -17.7913   -1.3612 S   0  0  0  1  0  0  0  0  0  0  0  0
    8.9425  -17.0305   -2.1143 O   0  0  0  1  0  0  0  0  0  0  0  0
    9.4036  -16.4315   -2.7061 H   0  0  0  1  0  0  0  0  0  0  0  0
   10.8080  -18.4374   -2.2015 O   0  0  0  1  0  0  0  0  0  0  0  0
    9.2391  -18.6011   -0.4187 O   0  0  0  1  0  0  0  0  0  0  0  0
  1  2  1  0  0  0  0
  1  3  1  0  0  0  0
  1  5  1  0  0  0  0
  2  7  2  0  0  0  0
  2  8  1  0  0  0  0
  3  4  1  0  0  0  0
  3  9  1  0  0  0  0
  3 10  1  0  0  0  0
  5  6  1  0  0  0  0
  5 12  2  0  0  0  0
  7 12  1  0  0  0  0
  7 13  1  0  0  0  0
  8 14  2  0  0  0  0
  9 16  1  0  0  0  0
 10 11  1  0  0  0  0
 10 18  1  0  0  0  0
 10 20  1  0  0  0  0
 13 22  2  0  0  0  0
 13 23  1  0  0  0  0
 14 15  1  0  0  0  0
 14 22  1  0  0  0  0
 16 17  1  0  0  0  0
 16 18  1  0  0  0  0
 16 26  1  0  0  0  0
 18 19  1  0  0  0  0
 18 29  1  0  0  0  0
 20 21  1  0  0  0  0
 23 24  1  0  0  0  0
 23 25  1  0  0  0  0
 26 27  1  0  0  0  0
 26 28  1  0  0  0  0
 26 31  1  0  0  0  0
 29 30  1  0  0  0  0
 31 32  1  0  0  0  0
 32 33  1  0  0  0  0
 32 34  2  0  0  0  0
 32 35  1  0  0  0  0
 33 36  1  0  0  0  0
 36 37  1  0  0  0  0
 36 39  2  0  0  0  0
 36 40  2  0  0  0  0
 37 38  1  0  0  0  0
M  END
> <ConfClashScore>
0 

> <ConfOneFourInteractionScore>
-0.98237 

> <ConfScore>
-0.211072 

> <ConfScorePBest>
0.00613746 

> <ConfTolerance>
1.16747 

$$$$
ChEBI.****
  PyMOL2.5          3D                             0

 40 42  0  0  0  0  0  0  0  0999 V2000
    9.6267   -9.8513   -2.4402 N   0  0  0  1  0  0  0  0  0  0  0  0
    9.7289   -8.4844   -2.4081 C   0  0  0  1  0  0  0  0  0  0  0  0
    8.7282  -10.6897   -1.6414 C   0  0  0  1  0  0  0  0  0  0  0  0
    7.7131  -10.4165   -1.8411 H   0  0  0  1  0  0  0  0  0  0  0  0
   10.5324  -10.2671   -3.3674 C   0  0  0  1  0  0  0  0  0  0  0  0
   10.6672  -11.2701   -3.6068 H   0  0  0  1  0  0  0  0  0  0  0  0
   10.7238   -8.1610   -3.3406 C   0  0  0  1  0  0  0  0  0  0  0  0
    9.0442   -7.6314   -1.6450 N   0  0  0  1  0  0  0  0  0  0  0  0
    8.9349  -12.0413   -1.9354 O   0  0  0  1  0  0  0  0  0  0  0  0
    9.0397  -10.5318   -0.1447 C   0  0  0  1  0  0  0  0  0  0  0  0
    9.3862   -9.5437    0.0753 H   0  0  0  1  0  0  0  0  0  0  0  0
   11.2189   -9.3120   -3.9334 N   0  0  0  1  0  0  0  0  0  0  0  0
   11.0098   -6.8048   -3.4660 C   0  0  0  1  0  0  0  0  0  0  0  0
    9.4117   -6.3765   -1.8732 C   0  0  0  1  0  0  0  0  0  0  0  0
    8.9147   -5.6536   -1.3146 H   0  0  0  1  0  0  0  0  0  0  0  0
    9.7870  -12.6603   -0.9553 C   0  0  0  1  0  0  0  0  0  0  0  0
    9.2739  -13.4673   -0.4754 H   0  0  0  1  0  0  0  0  0  0  0  0
   10.1363  -11.5588    0.0758 C   0  0  0  1  0  0  0  0  0  0  0  0
   11.1013  -11.1400   -0.1198 H   0  0  0  1  0  0  0  0  0  0  0  0
    7.8921  -10.8236    0.6541 O   0  0  0  1  0  0  0  0  0  0  0  0
    7.3213  -10.0525    0.6887 H   0  0  0  1  0  0  0  0  0  0  0  0
   10.3382   -5.9145   -2.7277 N   0  0  0  1  0  0  0  0  0  0  0  0
   11.9730   -6.3718   -4.3386 N   0  0  0  1  0  0  0  0  0  0  0  0
   12.4284   -7.0130   -4.9233 H   0  0  0  1  0  0  0  0  0  0  0  0
   12.2066   -5.4208   -4.3782 H   0  0  0  1  0  0  0  0  0  0  0  0
   11.0304  -13.1749   -1.6028 C   0  0  0  1  0  0  0  0  0  0  0  0
   11.6915  -13.5697   -0.8599 H   0  0  0  1  0  0  0  0  0  0  0  0
   11.5195  -12.3842   -2.1324 H   0  0  0  1  0  0  0  0  0  0  0  0
   10.1003  -12.0716    1.4084 O   0  0  0  1  0  0  0  0  0  0  0  0
   10.9546  -12.4494    1.6296 H   0  0  0  1  0  0  0  0  0  0  0  0
   10.6445  -14.2216   -2.5258 O   0  0  0  1  0  0  0  0  0  0  0  0
   11.3242  -14.4069   -4.0067 P   0  0  0  1  0  0  0  0  0  0  0  0
   12.8037  -14.9732   -3.6608 O   0  0  0  1  0  0  0  0  0  0  0  0
   10.4741  -15.2019   -4.9210 O   0  0  0  1  0  0  0  0  0  0  0  0
   11.6558  -12.9147   -4.5431 O   0  5  0  1  0  0  0  0  0  0  0  0
   14.1084  -14.7282   -4.5610 S   0  0  0  1  0  0  0  0  0  0  0  0
   14.7999  -15.9970   -4.6135 O   0  0  0  1  0  0  0  0  0  0  0  0
   14.7572  -16.4210   -3.7532 H   0  0  0  1  0  0  0  0  0  0  0  0
   13.5323  -14.3071   -5.8065 O   0  0  0  1  0  0  0  0  0  0  0  0
   14.8762  -13.7136   -3.8850 O   0  0  0  1  0  0  0  0  0  0  0  0
  1  2  1  0  0  0  0
  1  3  1  0  0  0  0
  1  5  1  0  0  0  0
  2  7  2  0  0  0  0
  2  8  1  0  0  0  0
  3  4  1  0  0  0  0
  3  9  1  0  0  0  0
  3 10  1  0  0  0  0
  5  6  1  0  0  0  0
  5 12  2  0  0  0  0
  7 12  1  0  0  0  0
  7 13  1  0  0  0  0
  8 14  2  0  0  0  0
  9 16  1  0  0  0  0
 10 11  1  0  0  0  0
 10 18  1  0  0  0  0
 10 20  1  0  0  0  0
 13 22  2  0  0  0  0
 13 23  1  0  0  0  0
 14 15  1  0  0  0  0
 14 22  1  0  0  0  0
 16 17  1  0  0  0  0
 16 18  1  0  0  0  0
 16 26  1  0  0  0  0
 18 19  1  0  0  0  0
 18 29  1  0  0  0  0
 20 21  1  0  0  0  0
 23 24  1  0  0  0  0
 23 25  1  0  0  0  0
 26 27  1  0  0  0  0
 26 28  1  0  0  0  0
 26 31  1  0  0  0  0
 29 30  1  0  0  0  0
 31 32  1  0  0  0  0
 32 33  1  0  0  0  0
 32 34  2  0  0  0  0
 32 35  1  0  0  0  0
 33 36  1  0  0  0  0
 36 37  1  0  0  0  0
 36 39  2  0  0  0  0
 36 40  2  0  0  0  0
 37 38  1  0  0  0  0
M  END
> <ConfClashScore>
0 

> <ConfOneFourInteractionScore>
-0.97979 

> <ConfScore>
-0.196279 

> <ConfScorePBest>
0.00603446 

> <ConfTolerance>
1.2414 

$$$$
ChEBI.****
  PyMOL2.5          3D                             0

 40 42  0  0  0  0  0  0  0  0999 V2000
    9.6047   -9.8601   -2.4234 N   0  0  0  1  0  0  0  0  0  0  0  0
    9.7254   -8.4945   -2.4054 C   0  0  0  1  0  0  0  0  0  0  0  0
    8.7141  -10.7278   -1.6350 C   0  0  0  1  0  0  0  0  0  0  0  0
    8.7219  -11.7156   -2.0463 H   0  0  0  1  0  0  0  0  0  0  0  0
   10.5020  -10.2975   -3.3487 C   0  0  0  1  0  0  0  0  0  0  0  0
   10.6227  -11.3046   -3.5783 H   0  0  0  1  0  0  0  0  0  0  0  0
   10.7218   -8.1940   -3.3438 C   0  0  0  1  0  0  0  0  0  0  0  0
    9.0544   -7.6247   -1.6491 N   0  0  0  1  0  0  0  0  0  0  0  0
    9.1040  -10.7475   -0.2887 O   0  0  0  1  0  0  0  0  0  0  0  0
    7.2871  -10.1613   -1.6077 C   0  0  0  1  0  0  0  0  0  0  0  0
    7.2969   -9.0913   -1.6047 H   0  0  0  1  0  0  0  0  0  0  0  0
   11.1997   -9.3575   -3.9264 N   0  0  0  1  0  0  0  0  0  0  0  0
   11.0257   -6.8431   -3.4838 C   0  0  0  1  0  0  0  0  0  0  0  0
    9.4381   -6.3772   -1.8910 C   0  0  0  1  0  0  0  0  0  0  0  0
    8.9525   -5.6421   -1.3385 H   0  0  0  1  0  0  0  0  0  0  0  0
    7.9676  -10.7176    0.6040 C   0  0  0  1  0  0  0  0  0  0  0  0
    7.9586  -11.5856    1.2297 H   0  0  0  1  0  0  0  0  0  0  0  0
    6.7409  -10.7030   -0.3128 C   0  0  0  1  0  0  0  0  0  0  0  0
    5.9769  -10.0642    0.0785 H   0  0  0  1  0  0  0  0  0  0  0  0
    6.5263  -10.6281   -2.7228 O   0  0  0  1  0  0  0  0  0  0  0  0
    6.8025  -11.5193   -2.9486 H   0  0  0  1  0  0  0  0  0  0  0  0
   10.3683   -5.9364   -2.7527 N   0  0  0  1  0  0  0  0  0  0  0  0
   11.9830   -6.3122   -4.3414 N   0  0  0  1  0  0  0  0  0  0  0  0
   12.0297   -5.3438   -4.4844 H   0  0  0  1  0  0  0  0  0  0  0  0
   12.6110   -6.9065   -4.8028 H   0  0  0  1  0  0  0  0  0  0  0  0
    8.0011   -9.4905    1.4544 C   0  0  0  1  0  0  0  0  0  0  0  0
    7.0636   -9.3687    1.9555 H   0  0  0  1  0  0  0  0  0  0  0  0
    8.1957   -8.6314    0.8469 H   0  0  0  1  0  0  0  0  0  0  0  0
    6.2171  -12.0201   -0.4888 O   0  0  0  1  0  0  0  0  0  0  0  0
    6.8498  -12.6631   -0.1604 H   0  0  0  1  0  0  0  0  0  0  0  0
    9.0609   -9.6576    2.4253 O   0  0  0  1  0  0  0  0  0  0  0  0
    8.7402   -9.6283    4.0334 P   0  0  0  1  0  0  0  0  0  0  0  0
    8.2416   -8.0696    4.3955 O   0  0  0  1  0  0  0  0  0  0  0  0
    7.7073  -10.6536    4.3023 O   0  0  0  1  0  0  0  0  0  0  0  0
   10.1220   -9.9820    4.8014 O   0  5  0  1  0  0  0  0  0  0  0  0
    7.7414   -6.8030    3.6418 S   0  0  0  1  0  0  0  0  0  0  0  0
    6.9387   -6.0405    4.5487 O   0  0  0  1  0  0  0  0  0  0  0  0
    6.4209   -6.6352    5.0962 H   0  0  0  1  0  0  0  0  0  0  0  0
    8.9652   -6.1712    3.3075 O   0  0  0  1  0  0  0  0  0  0  0  0
    6.9805   -7.2266    2.5270 O   0  0  0  1  0  0  0  0  0  0  0  0
  1  2  1  0  0  0  0
  1  3  1  0  0  0  0
  1  5  1  0  0  0  0
  2  7  2  0  0  0  0
  2  8  1  0  0  0  0
  3  4  1  0  0  0  0
  3  9  1  0  0  0  0
  3 10  1  0  0  0  0
  5  6  1  0  0  0  0
  5 12  2  0  0  0  0
  7 12  1  0  0  0  0
  7 13  1  0  0  0  0
  8 14  2  0  0  0  0
  9 16  1  0  0  0  0
 10 11  1  0  0  0  0
 10 18  1  0  0  0  0
 10 20  1  0  0  0  0
 13 22  2  0  0  0  0
 13 23  1  0  0  0  0
 14 15  1  0  0  0  0
 14 22  1  0  0  0  0
 16 17  1  0  0  0  0
 16 18  1  0  0  0  0
 16 26  1  0  0  0  0
 18 19  1  0  0  0  0
 18 29  1  0  0  0  0
 20 21  1  0  0  0  0
 23 24  1  0  0  0  0
 23 25  1  0  0  0  0
 26 27  1  0  0  0  0
 26 28  1  0  0  0  0
 26 31  1  0  0  0  0
 29 30  1  0  0  0  0
 31 32  1  0  0  0  0
 32 33  1  0  0  0  0
 32 34  2  0  0  0  0
 32 35  1  0  0  0  0
 33 36  1  0  0  0  0
 36 37  1  0  0  0  0
 36 39  2  0  0  0  0
 36 40  2  0  0  0  0
 37 38  1  0  0  0  0
M  END
> <ConfClashScore>
0 

> <ConfOneFourInteractionScore>
-0.975472 

> <ConfScore>
-0.195477 

> <ConfScorePBest>
0.00593146 

> <ConfTolerance>
1.37444 

$$$$
ChEBI.****
  PyMOL2.5          3D                             0

 40 42  0  0  0  0  0  0  0  0999 V2000
    9.6163   -9.8684   -2.4315 N   0  0  0  1  0  0  0  0  0  0  0  0
    9.7293   -8.5022   -2.4104 C   0  0  0  1  0  0  0  0  0  0  0  0
    8.6962  -10.7074   -1.6115 C   0  0  0  1  0  0  0  0  0  0  0  0
    8.3955  -11.5647   -2.1768 H   0  0  0  1  0  0  0  0  0  0  0  0
   10.5179  -10.2987   -3.3559 C   0  0  0  1  0  0  0  0  0  0  0  0
   10.6447  -11.3047   -3.5873 H   0  0  0  1  0  0  0  0  0  0  0  0
   10.7260   -8.1941   -3.3461 C   0  0  0  1  0  0  0  0  0  0  0  0
    9.0519   -7.6376   -1.6536 N   0  0  0  1  0  0  0  0  0  0  0  0
    9.3429  -11.1145   -0.4387 O   0  0  0  1  0  0  0  0  0  0  0  0
    7.4600   -9.8870   -1.2107 C   0  0  0  1  0  0  0  0  0  0  0  0
    7.3777   -8.9994   -1.8026 H   0  0  0  1  0  0  0  0  0  0  0  0
   11.2116   -9.3537   -3.9301 N   0  0  0  1  0  0  0  0  0  0  0  0
   11.0226   -6.8412   -3.4826 C   0  0  0  1  0  0  0  0  0  0  0  0
    9.4292   -6.3876   -1.8922 C   0  0  0  1  0  0  0  0  0  0  0  0
    8.9383   -5.6563   -1.3391 H   0  0  0  1  0  0  0  0  0  0  0  0
    8.5756  -10.7139    0.7371 C   0  0  0  1  0  0  0  0  0  0  0  0
    7.9501  -11.5147    1.0724 H   0  0  0  1  0  0  0  0  0  0  0  0
    7.7415   -9.5475    0.2591 C   0  0  0  1  0  0  0  0  0  0  0  0
    8.2849   -8.6295    0.3421 H   0  0  0  1  0  0  0  0  0  0  0  0
    6.2750  -10.6531   -1.3398 O   0  0  0  1  0  0  0  0  0  0  0  0
    6.4707  -11.4704   -1.8038 H   0  0  0  1  0  0  0  0  0  0  0  0
   10.3587   -5.9398   -2.7510 N   0  0  0  1  0  0  0  0  0  0  0  0
   11.9788   -6.3032   -4.3371 N   0  0  0  1  0  0  0  0  0  0  0  0
   12.4643   -6.8856   -4.9580 H   0  0  0  1  0  0  0  0  0  0  0  0
   12.1672   -5.3416   -4.3183 H   0  0  0  1  0  0  0  0  0  0  0  0
    9.4853  -10.2948    1.8447 C   0  0  0  1  0  0  0  0  0  0  0  0
    8.9097   -9.9557    2.6805 H   0  0  0  1  0  0  0  0  0  0  0  0
   10.1277   -9.5071    1.5103 H   0  0  0  1  0  0  0  0  0  0  0  0
    6.5258   -9.4508    1.0025 O   0  0  0  1  0  0  0  0  0  0  0  0
    5.9459  -10.1779    0.7645 H   0  0  0  1  0  0  0  0  0  0  0  0
   10.2746  -11.4465    2.2246 O   0  0  0  1  0  0  0  0  0  0  0  0
   11.9128  -11.4009    2.1619 P   0  0  0  1  0  0  0  0  0  0  0  0
   12.5013  -12.7615    2.8190 O   0  0  0  1  0  0  0  0  0  0  0  0
   12.7133  -11.3066    0.9206 O   0  0  0  1  0  0  0  0  0  0  0  0
   12.3550  -10.2621    3.2258 O   0  5  0  1  0  0  0  0  0  0  0  0
   13.2172  -12.8411    4.1988 S   0  0  0  1  0  0  0  0  0  0  0  0
   12.4955  -12.0132    5.1165 O   0  0  0  1  0  0  0  0  0  0  0  0
   12.7742  -12.2108    6.0137 H   0  0  0  1  0  0  0  0  0  0  0  0
   13.1155  -14.2242    4.4908 O   0  0  0  1  0  0  0  0  0  0  0  0
   14.5429  -12.3760    4.0337 O   0  0  0  1  0  0  0  0  0  0  0  0
  1  2  1  0  0  0  0
  1  3  1  0  0  0  0
  1  5  1  0  0  0  0
  2  7  2  0  0  0  0
  2  8  1  0  0  0  0
  3  4  1  0  0  0  0
  3  9  1  0  0  0  0
  3 10  1  0  0  0  0
  5  6  1  0  0  0  0
  5 12  2  0  0  0  0
  7 12  1  0  0  0  0
  7 13  1  0  0  0  0
  8 14  2  0  0  0  0
  9 16  1  0  0  0  0
 10 11  1  0  0  0  0
 10 18  1  0  0  0  0
 10 20  1  0  0  0  0
 13 22  2  0  0  0  0
 13 23  1  0  0  0  0
 14 15  1  0  0  0  0
 14 22  1  0  0  0  0
 16 17  1  0  0  0  0
 16 18  1  0  0  0  0
 16 26  1  0  0  0  0
 18 19  1  0  0  0  0
 18 29  1  0  0  0  0
 20 21  1  0  0  0  0
 23 24  1  0  0  0  0
 23 25  1  0  0  0  0
 26 27  1  0  0  0  0
 26 28  1  0  0  0  0
 26 31  1  0  0  0  0
 29 30  1  0  0  0  0
 31 32  1  0  0  0  0
 32 33  1  0  0  0  0
 32 34  2  0  0  0  0
 32 35  1  0  0  0  0
 33 36  1  0  0  0  0
 36 37  1  0  0  0  0
 36 39  2  0  0  0  0
 36 40  2  0  0  0  0
 37 38  1  0  0  0  0
M  END
> <ConfClashScore>
0 

> <ConfOneFourInteractionScore>
-0.97752 

> <ConfScore>
-0.189016 

> <ConfScorePBest>
0.00582846 

> <ConfTolerance>
1.31931 

$$$$
ChEBI.****
  PyMOL2.5          3D                             0

 40 42  0  0  0  0  0  0  0  0999 V2000
    9.6223   -9.8693   -2.4243 N   0  0  0  1  0  0  0  0  0  0  0  0
    9.7290   -8.5025   -2.4100 C   0  0  0  1  0  0  0  0  0  0  0  0
    8.7087  -10.7030   -1.6087 C   0  0  0  1  0  0  0  0  0  0  0  0
    9.0370  -10.7013   -0.5903 H   0  0  0  1  0  0  0  0  0  0  0  0
   10.5297  -10.3004   -3.3428 C   0  0  0  1  0  0  0  0  0  0  0  0
   10.6620  -11.3070   -3.5684 H   0  0  0  1  0  0  0  0  0  0  0  0
   10.7280   -8.1948   -3.3433 C   0  0  0  1  0  0  0  0  0  0  0  0
    9.0446   -7.6372   -1.6605 N   0  0  0  1  0  0  0  0  0  0  0  0
    7.4057  -10.1976   -1.6887 O   0  0  0  1  0  0  0  0  0  0  0  0
    8.6929  -12.1416   -2.1494 C   0  0  0  1  0  0  0  0  0  0  0  0
    9.5172  -12.3146   -2.8093 H   0  0  0  1  0  0  0  0  0  0  0  0
   11.2213   -9.3552   -3.9192 N   0  0  0  1  0  0  0  0  0  0  0  0
   11.0190   -6.8413   -3.4857 C   0  0  0  1  0  0  0  0  0  0  0  0
    9.4171   -6.3866   -1.9041 C   0  0  0  1  0  0  0  0  0  0  0  0
    8.9207   -5.6547   -1.3569 H   0  0  0  1  0  0  0  0  0  0  0  0
    6.4818  -11.2287   -2.1524 C   0  0  0  1  0  0  0  0  0  0  0  0
    6.0032  -11.7087   -1.3246 H   0  0  0  1  0  0  0  0  0  0  0  0
    7.3580  -12.2047   -2.9037 C   0  0  0  1  0  0  0  0  0  0  0  0
    7.4802  -11.9027   -3.9229 H   0  0  0  1  0  0  0  0  0  0  0  0
    8.7275  -13.0922   -1.0839 O   0  0  0  1  0  0  0  0  0  0  0  0
    7.9887  -12.9362   -0.4911 H   0  0  0  1  0  0  0  0  0  0  0  0
   10.3480   -5.9391   -2.7616 N   0  0  0  1  0  0  0  0  0  0  0  0
   11.9761   -6.3034   -4.3392 N   0  0  0  1  0  0  0  0  0  0  0  0
   12.5465   -6.8963   -4.8716 H   0  0  0  1  0  0  0  0  0  0  0  0
   12.0802   -5.3314   -4.4083 H   0  0  0  1  0  0  0  0  0  0  0  0
    5.4394  -10.6396   -3.0622 C   0  0  0  1  0  0  0  0  0  0  0  0
    5.0842  -11.3780   -3.7503 H   0  0  0  1  0  0  0  0  0  0  0  0
    5.8432   -9.8105   -3.6049 H   0  0  0  1  0  0  0  0  0  0  0  0
    6.8086  -13.5224   -2.8594 O   0  0  0  1  0  0  0  0  0  0  0  0
    5.9422  -13.5224   -3.2728 H   0  0  0  1  0  0  0  0  0  0  0  0
    4.3670  -10.2008   -2.1941 O   0  0  0  1  0  0  0  0  0  0  0  0
    2.9598   -9.5721   -2.7544 P   0  0  0  1  0  0  0  0  0  0  0  0
    2.3804   -9.0719   -1.3248 O   0  0  0  1  0  0  0  0  0  0  0  0
    3.0545   -8.5350   -3.8059 O   0  0  0  1  0  0  0  0  0  0  0  0
    2.0402  -10.8127   -3.2441 O   0  5  0  1  0  0  0  0  0  0  0  0
    1.3664   -9.8679   -0.4525 S   0  0  0  1  0  0  0  0  0  0  0  0
    1.7390  -11.2491   -0.4959 O   0  0  0  1  0  0  0  0  0  0  0  0
    2.1358  -11.4474   -1.3472 H   0  0  0  1  0  0  0  0  0  0  0  0
    1.5601   -9.2737    0.8195 O   0  0  0  1  0  0  0  0  0  0  0  0
    0.0742   -9.6758   -0.9950 O   0  0  0  1  0  0  0  0  0  0  0  0
  1  2  1  0  0  0  0
  1  3  1  0  0  0  0
  1  5  1  0  0  0  0
  2  7  2  0  0  0  0
  2  8  1  0  0  0  0
  3  4  1  0  0  0  0
  3  9  1  0  0  0  0
  3 10  1  0  0  0  0
  5  6  1  0  0  0  0
  5 12  2  0  0  0  0
  7 12  1  0  0  0  0
  7 13  1  0  0  0  0
  8 14  2  0  0  0  0
  9 16  1  0  0  0  0
 10 11  1  0  0  0  0
 10 18  1  0  0  0  0
 10 20  1  0  0  0  0
 13 22  2  0  0  0  0
 13 23  1  0  0  0  0
 14 15  1  0  0  0  0
 14 22  1  0  0  0  0
 16 17  1  0  0  0  0
 16 18  1  0  0  0  0
 16 26  1  0  0  0  0
 18 19  1  0  0  0  0
 18 29  1  0  0  0  0
 20 21  1  0  0  0  0
 23 24  1  0  0  0  0
 23 25  1  0  0  0  0
 26 27  1  0  0  0  0
 26 28  1  0  0  0  0
 26 31  1  0  0  0  0
 29 30  1  0  0  0  0
 31 32  1  0  0  0  0
 32 33  1  0  0  0  0
 32 34  2  0  0  0  0
 32 35  1  0  0  0  0
 33 36  1  0  0  0  0
 36 37  1  0  0  0  0
 36 39  2  0  0  0  0
 36 40  2  0  0  0  0
 37 38  1  0  0  0  0
M  END
> <ConfClashScore>
0 

> <ConfOneFourInteractionScore>
-0.963491 

> <ConfScore>
-0.188099 

> <ConfScorePBest>
0.00572546 

> <ConfTolerance>
1.2931 

$$$$
ChEBI.****
  PyMOL2.5          3D                             0

 40 42  0  0  0  0  0  0  0  0999 V2000
    9.6100   -9.8656   -2.4266 N   0  0  0  1  0  0  0  0  0  0  0  0
    9.7257   -8.4996   -2.4071 C   0  0  0  1  0  0  0  0  0  0  0  0
    8.6781  -10.6917   -1.6343 C   0  0  0  1  0  0  0  0  0  0  0  0
    7.7053  -10.6586   -2.0787 H   0  0  0  1  0  0  0  0  0  0  0  0
   10.5326  -10.3008   -3.3278 C   0  0  0  1  0  0  0  0  0  0  0  0
   10.6625  -11.3078   -3.5530 H   0  0  0  1  0  0  0  0  0  0  0  0
   10.7452   -8.1967   -3.3196 C   0  0  0  1  0  0  0  0  0  0  0  0
    9.0324   -7.6312   -1.6694 N   0  0  0  1  0  0  0  0  0  0  0  0
    9.1364  -12.0111   -1.5649 O   0  0  0  1  0  0  0  0  0  0  0  0
    8.6200  -10.1891   -0.1830 C   0  0  0  1  0  0  0  0  0  0  0  0
    8.7634   -9.1299   -0.1352 H   0  0  0  1  0  0  0  0  0  0  0  0
   11.2419   -9.3592   -3.8881 N   0  0  0  1  0  0  0  0  0  0  0  0
   11.0481   -6.8449   -3.4531 C   0  0  0  1  0  0  0  0  0  0  0  0
    9.4181   -6.3827   -1.9027 C   0  0  0  1  0  0  0  0  0  0  0  0
    8.9158   -5.6486   -1.3638 H   0  0  0  1  0  0  0  0  0  0  0  0
    9.8265  -12.2555   -0.3264 C   0  0  0  1  0  0  0  0  0  0  0  0
    9.3396  -13.0353    0.2211 H   0  0  0  1  0  0  0  0  0  0  0  0
    9.7745  -10.9284    0.4701 C   0  0  0  1  0  0  0  0  0  0  0  0
   10.6887  -10.3819    0.3685 H   0  0  0  1  0  0  0  0  0  0  0  0
    7.3763  -10.5301    0.4310 O   0  0  0  1  0  0  0  0  0  0  0  0
    6.8296  -11.0086   -0.1965 H   0  0  0  1  0  0  0  0  0  0  0  0
   10.3689   -5.9396   -2.7404 N   0  0  0  1  0  0  0  0  0  0  0  0
   11.9756   -6.3092   -4.3616 N   0  0  0  1  0  0  0  0  0  0  0  0
   12.1397   -5.3432   -4.3820 H   0  0  0  1  0  0  0  0  0  0  0  0
   12.4586   -6.9014   -4.9751 H   0  0  0  1  0  0  0  0  0  0  0  0
   11.2538  -12.6459   -0.5943 C   0  0  0  1  0  0  0  0  0  0  0  0
   11.8127  -12.6660    0.3179 H   0  0  0  1  0  0  0  0  0  0  0  0
   11.7075  -11.9573   -1.2761 H   0  0  0  1  0  0  0  0  0  0  0  0
    9.5141  -11.1689    1.8538 O   0  0  0  1  0  0  0  0  0  0  0  0
   10.0195  -11.9305    2.1473 H   0  0  0  1  0  0  0  0  0  0  0  0
   11.1931  -13.9692   -1.1787 O   0  0  0  1  0  0  0  0  0  0  0  0
   11.7996  -14.1166   -2.6952 P   0  0  0  1  0  0  0  0  0  0  0  0
   10.8201  -13.2987   -3.6958 O   0  0  0  1  0  0  0  0  0  0  0  0
   13.1615  -13.5395   -2.6426 O   0  0  0  1  0  0  0  0  0  0  0  0
   11.6790  -15.6537   -3.1924 O   0  5  0  1  0  0  0  0  0  0  0  0
    9.4210  -13.8556   -4.2664 S   0  0  0  1  0  0  0  0  0  0  0  0
    9.5317  -13.4585   -5.6557 O   0  0  0  1  0  0  0  0  0  0  0  0
   10.1367  -14.0489   -6.1105 H   0  0  0  1  0  0  0  0  0  0  0  0
    9.4301  -15.2887   -4.0670 O   0  0  0  1  0  0  0  0  0  0  0  0
    8.3740  -13.2036   -3.5270 O   0  0  0  1  0  0  0  0  0  0  0  0
  1  2  1  0  0  0  0
  1  3  1  0  0  0  0
  1  5  1  0  0  0  0
  2  7  2  0  0  0  0
  2  8  1  0  0  0  0
  3  4  1  0  0  0  0
  3  9  1  0  0  0  0
  3 10  1  0  0  0  0
  5  6  1  0  0  0  0
  5 12  2  0  0  0  0
  7 12  1  0  0  0  0
  7 13  1  0  0  0  0
  8 14  2  0  0  0  0
  9 16  1  0  0  0  0
 10 11  1  0  0  0  0
 10 18  1  0  0  0  0
 10 20  1  0  0  0  0
 13 22  2  0  0  0  0
 13 23  1  0  0  0  0
 14 15  1  0  0  0  0
 14 22  1  0  0  0  0
 16 17  1  0  0  0  0
 16 18  1  0  0  0  0
 16 26  1  0  0  0  0
 18 19  1  0  0  0  0
 18 29  1  0  0  0  0
 20 21  1  0  0  0  0
 23 24  1  0  0  0  0
 23 25  1  0  0  0  0
 26 27  1  0  0  0  0
 26 28  1  0  0  0  0
 26 31  1  0  0  0  0
 29 30  1  0  0  0  0
 31 32  1  0  0  0  0
 32 33  1  0  0  0  0
 32 34  2  0  0  0  0
 32 35  1  0  0  0  0
 33 36  1  0  0  0  0
 36 37  1  0  0  0  0
 36 39  2  0  0  0  0
 36 40  2  0  0  0  0
 37 38  1  0  0  0  0
M  END
> <ConfClashScore>
0 

> <ConfOneFourInteractionScore>
-0.988969 

> <ConfScore>
-0.185629 

> <ConfScorePBest>
0.00562246 

> <ConfTolerance>
1.41931 

$$$$
ChEBI.****
  PyMOL2.5          3D                             0

 40 42  0  0  0  0  0  0  0  0999 V2000
    9.6253   -9.8697   -2.4207 N   0  0  0  1  0  0  0  0  0  0  0  0
    9.7289   -8.5027   -2.4098 C   0  0  0  1  0  0  0  0  0  0  0  0
    8.7147  -10.7008   -1.6073 C   0  0  0  1  0  0  0  0  0  0  0  0
    7.7920  -10.1796   -1.4592 H   0  0  0  1  0  0  0  0  0  0  0  0
   10.5354  -10.3011   -3.3363 C   0  0  0  1  0  0  0  0  0  0  0  0
   10.6704  -11.3080   -3.5590 H   0  0  0  1  0  0  0  0  0  0  0  0
   10.7290   -8.1951   -3.3419 C   0  0  0  1  0  0  0  0  0  0  0  0
    9.0411   -7.6369   -1.6639 N   0  0  0  1  0  0  0  0  0  0  0  0
    8.4915  -11.9406   -2.2222 O   0  0  0  1  0  0  0  0  0  0  0  0
    9.3605  -11.0569   -0.2605 C   0  0  0  1  0  0  0  0  0  0  0  0
   10.4178  -11.1863   -0.3619 H   0  0  0  1  0  0  0  0  0  0  0  0
   11.2260   -9.3559   -3.9138 N   0  0  0  1  0  0  0  0  0  0  0  0
   11.0172   -6.8413   -3.4873 C   0  0  0  1  0  0  0  0  0  0  0  0
    9.4112   -6.3862   -1.9100 C   0  0  0  1  0  0  0  0  0  0  0  0
    8.9121   -5.6540   -1.3656 H   0  0  0  1  0  0  0  0  0  0  0  0
    8.4730  -13.0235   -1.2650 C   0  0  0  1  0  0  0  0  0  0  0  0
    7.5317  -13.5316   -1.2908 H   0  0  0  1  0  0  0  0  0  0  0  0
    8.6863  -12.3556    0.0966 C   0  0  0  1  0  0  0  0  0  0  0  0
    9.3137  -12.9540    0.7236 H   0  0  0  1  0  0  0  0  0  0  0  0
    9.0950  -10.0524    0.7196 O   0  0  0  1  0  0  0  0  0  0  0  0
    8.4755  -10.3937    1.3687 H   0  0  0  1  0  0  0  0  0  0  0  0
   10.3427   -5.9388   -2.7668 N   0  0  0  1  0  0  0  0  0  0  0  0
   11.9748   -6.3035   -4.3403 N   0  0  0  1  0  0  0  0  0  0  0  0
   12.5851   -6.8957   -4.8274 H   0  0  0  1  0  0  0  0  0  0  0  0
   12.0394   -5.3323   -4.4543 H   0  0  0  1  0  0  0  0  0  0  0  0
    9.5714  -13.9942   -1.5505 C   0  0  0  1  0  0  0  0  0  0  0  0
    9.4815  -14.3622   -2.5512 H   0  0  0  1  0  0  0  0  0  0  0  0
    9.5220  -14.8127   -0.8631 H   0  0  0  1  0  0  0  0  0  0  0  0
    7.4397  -12.1219    0.7535 O   0  0  0  1  0  0  0  0  0  0  0  0
    7.6015  -11.8281    1.6529 H   0  0  0  1  0  0  0  0  0  0  0  0
   10.8288  -13.2938   -1.3938 O   0  0  0  1  0  0  0  0  0  0  0  0
   12.2137  -14.0325   -0.9183 P   0  0  0  1  0  0  0  0  0  0  0  0
   13.3438  -12.8708   -0.8659 O   0  0  0  1  0  0  0  0  0  0  0  0
   12.0878  -14.7700    0.3586 O   0  0  0  1  0  0  0  0  0  0  0  0
   12.5939  -14.8649   -2.2551 O   0  5  0  1  0  0  0  0  0  0  0  0
   13.6941  -11.9181   -2.0517 S   0  0  0  1  0  0  0  0  0  0  0  0
   14.9022  -12.4108   -2.6572 O   0  0  0  1  0  0  0  0  0  0  0  0
   15.5285  -11.6899   -2.7554 H   0  0  0  1  0  0  0  0  0  0  0  0
   12.6349  -11.9506   -3.0080 O   0  0  0  1  0  0  0  0  0  0  0  0
   13.8822  -10.6608   -1.4097 O   0  0  0  1  0  0  0  0  0  0  0  0
  1  2  1  0  0  0  0
  1  3  1  0  0  0  0
  1  5  1  0  0  0  0
  2  7  2  0  0  0  0
  2  8  1  0  0  0  0
  3  4  1  0  0  0  0
  3  9  1  0  0  0  0
  3 10  1  0  0  0  0
  5  6  1  0  0  0  0
  5 12  2  0  0  0  0
  7 12  1  0  0  0  0
  7 13  1  0  0  0  0
  8 14  2  0  0  0  0
  9 16  1  0  0  0  0
 10 11  1  0  0  0  0
 10 18  1  0  0  0  0
 10 20  1  0  0  0  0
 13 22  2  0  0  0  0
 13 23  1  0  0  0  0
 14 15  1  0  0  0  0
 14 22  1  0  0  0  0
 16 17  1  0  0  0  0
 16 18  1  0  0  0  0
 16 26  1  0  0  0  0
 18 19  1  0  0  0  0
 18 29  1  0  0  0  0
 20 21  1  0  0  0  0
 23 24  1  0  0  0  0
 23 25  1  0  0  0  0
 26 27  1  0  0  0  0
 26 28  1  0  0  0  0
 26 31  1  0  0  0  0
 29 30  1  0  0  0  0
 31 32  1  0  0  0  0
 32 33  1  0  0  0  0
 32 34  2  0  0  0  0
 32 35  1  0  0  0  0
 33 36  1  0  0  0  0
 36 37  1  0  0  0  0
 36 39  2  0  0  0  0
 36 40  2  0  0  0  0
 37 38  1  0  0  0  0
M  END
> <ConfClashScore>
0 

> <ConfOneFourInteractionScore>
-0.98755 

> <ConfScore>
-0.179331 

> <ConfScorePBest>
0.00551946 

> <ConfTolerance>
1.50761 

$$$$
ChEBI.****
  PyMOL2.5          3D                             0

 40 42  0  0  0  0  0  0  0  0999 V2000
    9.6055   -9.8562   -2.4535 N   0  0  0  1  0  0  0  0  0  0  0  0
    9.7198   -8.4903   -2.4205 C   0  0  0  1  0  0  0  0  0  0  0  0
    8.7621  -10.7072   -1.5821 C   0  0  0  1  0  0  0  0  0  0  0  0
    7.8948  -10.1588   -1.2789 H   0  0  0  1  0  0  0  0  0  0  0  0
   10.5114  -10.2798   -3.3770 C   0  0  0  1  0  0  0  0  0  0  0  0
   10.6383  -11.2839   -3.6161 H   0  0  0  1  0  0  0  0  0  0  0  0
   10.7215   -8.1755   -3.3486 C   0  0  0  1  0  0  0  0  0  0  0  0
    9.0395   -7.6315   -1.6600 N   0  0  0  1  0  0  0  0  0  0  0  0
    8.3970  -11.8876   -2.2440 O   0  0  0  1  0  0  0  0  0  0  0  0
    9.5561  -11.1888   -0.3592 C   0  0  0  1  0  0  0  0  0  0  0  0
   10.5833  -11.3561   -0.6077 H   0  0  0  1  0  0  0  0  0  0  0  0
   11.2088   -9.3307   -3.9398 N   0  0  0  1  0  0  0  0  0  0  0  0
   11.0201   -6.8218   -3.4723 C   0  0  0  1  0  0  0  0  0  0  0  0
    9.4191   -6.3798   -1.8862 C   0  0  0  1  0  0  0  0  0  0  0  0
    8.9263   -5.6527   -1.3295 H   0  0  0  1  0  0  0  0  0  0  0  0
    8.4449  -13.0361   -1.3677 C   0  0  0  1  0  0  0  0  0  0  0  0
    7.4827  -13.4997   -1.3032 H   0  0  0  1  0  0  0  0  0  0  0  0
    8.8661  -12.4798   -0.0043 C   0  0  0  1  0  0  0  0  0  0  0  0
    9.5366  -13.1492    0.4928 H   0  0  0  1  0  0  0  0  0  0  0  0
    9.4718  -10.2483    0.7126 O   0  0  0  1  0  0  0  0  0  0  0  0
    8.5712  -10.2196    1.0437 H   0  0  0  1  0  0  0  0  0  0  0  0
   10.3534   -5.9258   -2.7366 N   0  0  0  1  0  0  0  0  0  0  0  0
   11.9802   -6.3431   -4.3243 N   0  0  0  1  0  0  0  0  0  0  0  0
   12.4158   -6.9475   -4.9610 H   0  0  0  1  0  0  0  0  0  0  0  0
   12.2313   -5.3962   -4.2971 H   0  0  0  1  0  0  0  0  0  0  0  0
    9.4449  -14.0298   -1.8601 C   0  0  0  1  0  0  0  0  0  0  0  0
   10.4256  -13.6026   -1.8356 H   0  0  0  1  0  0  0  0  0  0  0  0
    9.2069  -14.3206   -2.8619 H   0  0  0  1  0  0  0  0  0  0  0  0
    7.7283  -12.2412    0.8254 O   0  0  0  1  0  0  0  0  0  0  0  0
    7.9508  -12.4369    1.7385 H   0  0  0  1  0  0  0  0  0  0  0  0
    9.3870  -15.1839   -0.9838 O   0  0  0  1  0  0  0  0  0  0  0  0
    9.5652  -16.7246   -1.5169 P   0  0  0  1  0  0  0  0  0  0  0  0
   11.1233  -16.8262   -1.9544 O   0  0  0  1  0  0  0  0  0  0  0  0
    9.3946  -17.6882   -0.4066 O   0  0  0  1  0  0  0  0  0  0  0  0
    8.5877  -16.9871   -2.7818 O   0  5  0  1  0  0  0  0  0  0  0  0
   11.6908  -16.7077   -3.5585 S   0  0  0  1  0  0  0  0  0  0  0  0
   12.2612  -18.0169   -3.7009 O   0  0  0  1  0  0  0  0  0  0  0  0
   11.8415  -18.6184   -3.0815 H   0  0  0  1  0  0  0  0  0  0  0  0
   10.4516  -16.5230   -4.1434 O   0  0  0  1  0  0  0  0  0  0  0  0
   12.6008  -15.6846   -3.5757 O   0  0  0  1  0  0  0  0  0  0  0  0
  1  2  1  0  0  0  0
  1  3  1  0  0  0  0
  1  5  1  0  0  0  0
  2  7  2  0  0  0  0
  2  8  1  0  0  0  0
  3  4  1  0  0  0  0
  3  9  1  0  0  0  0
  3 10  1  0  0  0  0
  5  6  1  0  0  0  0
  5 12  2  0  0  0  0
  7 12  1  0  0  0  0
  7 13  1  0  0  0  0
  8 14  2  0  0  0  0
  9 16  1  0  0  0  0
 10 11  1  0  0  0  0
 10 18  1  0  0  0  0
 10 20  1  0  0  0  0
 13 22  2  0  0  0  0
 13 23  1  0  0  0  0
 14 15  1  0  0  0  0
 14 22  1  0  0  0  0
 16 17  1  0  0  0  0
 16 18  1  0  0  0  0
 16 26  1  0  0  0  0
 18 19  1  0  0  0  0
 18 29  1  0  0  0  0
 20 21  1  0  0  0  0
 23 24  1  0  0  0  0
 23 25  1  0  0  0  0
 26 27  1  0  0  0  0
 26 28  1  0  0  0  0
 26 31  1  0  0  0  0
 29 30  1  0  0  0  0
 31 32  1  0  0  0  0
 32 33  1  0  0  0  0
 32 34  2  0  0  0  0
 32 35  1  0  0  0  0
 33 36  1  0  0  0  0
 36 37  1  0  0  0  0
 36 39  2  0  0  0  0
 36 40  2  0  0  0  0
 37 38  1  0  0  0  0
M  END
> <ConfClashScore>
0 

> <ConfOneFourInteractionScore>
-0.982003 

> <ConfScore>
-0.176125 

> <ConfScorePBest>
0.00541646 

> <ConfTolerance>
1.45756 

$$$$
ChEBI.****
  PyMOL2.5          3D                             0

 40 42  0  0  0  0  0  0  0  0999 V2000
    9.6329   -9.8565   -2.4441 N   0  0  0  1  0  0  0  0  0  0  0  0
    9.7313   -8.4894   -2.4114 C   0  0  0  1  0  0  0  0  0  0  0  0
    8.7080  -10.6548   -1.6158 C   0  0  0  1  0  0  0  0  0  0  0  0
    7.6994  -10.4524   -1.9105 H   0  0  0  1  0  0  0  0  0  0  0  0
   10.5411  -10.2696   -3.3700 C   0  0  0  1  0  0  0  0  0  0  0  0
   10.6791  -11.2722   -3.6095 H   0  0  0  1  0  0  0  0  0  0  0  0
   10.7267   -8.1630   -3.3423 C   0  0  0  1  0  0  0  0  0  0  0  0
    9.0432   -7.6385   -1.6490 N   0  0  0  1  0  0  0  0  0  0  0  0
    8.9846  -12.0179   -1.7739 O   0  0  0  1  0  0  0  0  0  0  0  0
    8.8989  -10.3015   -0.1323 C   0  0  0  1  0  0  0  0  0  0  0  0
    9.4476   -9.3897   -0.0207 H   0  0  0  1  0  0  0  0  0  0  0  0
   11.2259   -9.3125   -3.9348 N   0  0  0  1  0  0  0  0  0  0  0  0
   11.0092   -6.8059   -3.4669 C   0  0  0  1  0  0  0  0  0  0  0  0
    9.4076   -6.3825   -1.8763 C   0  0  0  1  0  0  0  0  0  0  0  0
    8.9078   -5.6612   -1.3183 H   0  0  0  1  0  0  0  0  0  0  0  0
    9.2525  -12.6415   -0.4812 C   0  0  0  1  0  0  0  0  0  0  0  0
    8.3672  -13.0975   -0.0898 H   0  0  0  1  0  0  0  0  0  0  0  0
    9.6997  -11.4975    0.3997 C   0  0  0  1  0  0  0  0  0  0  0  0
   10.7516  -11.3277    0.3011 H   0  0  0  1  0  0  0  0  0  0  0  0
    7.6415  -10.1861    0.5353 O   0  0  0  1  0  0  0  0  0  0  0  0
    7.1602   -9.4333    0.1842 H   0  0  0  1  0  0  0  0  0  0  0  0
   10.3341   -5.9177   -2.7293 N   0  0  0  1  0  0  0  0  0  0  0  0
   11.9725   -6.3700   -4.3380 N   0  0  0  1  0  0  0  0  0  0  0  0
   12.4438   -7.0123   -4.9087 H   0  0  0  1  0  0  0  0  0  0  0  0
   12.1902   -5.4160   -4.3904 H   0  0  0  1  0  0  0  0  0  0  0  0
   10.3302  -13.6681   -0.6025 C   0  0  0  1  0  0  0  0  0  0  0  0
   10.6687  -13.9578    0.3703 H   0  0  0  1  0  0  0  0  0  0  0  0
   11.1507  -13.2707   -1.1626 H   0  0  0  1  0  0  0  0  0  0  0  0
    9.3846  -11.7544    1.7689 O   0  0  0  1  0  0  0  0  0  0  0  0
    8.4335  -11.8396    1.8683 H   0  0  0  1  0  0  0  0  0  0  0  0
    9.7719  -14.8120   -1.2909 O   0  0  0  1  0  0  0  0  0  0  0  0
    9.5794  -16.2461   -0.5190 P   0  0  0  1  0  0  0  0  0  0  0  0
    8.6096  -15.9751    0.7521 O   0  0  0  1  0  0  0  0  0  0  0  0
    8.8525  -17.2288   -1.3535 O   0  0  0  1  0  0  0  0  0  0  0  0
   11.0624  -16.6762   -0.0290 O   0  5  0  1  0  0  0  0  0  0  0  0
    9.0608  -15.2253    2.1081 S   0  0  0  1  0  0  0  0  0  0  0  0
   10.5088  -15.2846    2.1440 O   0  0  0  1  0  0  0  0  0  0  0  0
   10.8226  -14.9477    2.9864 H   0  0  0  1  0  0  0  0  0  0  0  0
    8.5363  -13.9055    2.0337 O   0  0  0  1  0  0  0  0  0  0  0  0
    8.4260  -16.1190    3.0265 O   0  0  0  1  0  0  0  0  0  0  0  0
  1  2  1  0  0  0  0
  1  3  1  0  0  0  0
  1  5  1  0  0  0  0
  2  7  2  0  0  0  0
  2  8  1  0  0  0  0
  3  4  1  0  0  0  0
  3  9  1  0  0  0  0
  3 10  1  0  0  0  0
  5  6  1  0  0  0  0
  5 12  2  0  0  0  0
  7 12  1  0  0  0  0
  7 13  1  0  0  0  0
  8 14  2  0  0  0  0
  9 16  1  0  0  0  0
 10 11  1  0  0  0  0
 10 18  1  0  0  0  0
 10 20  1  0  0  0  0
 13 22  2  0  0  0  0
 13 23  1  0  0  0  0
 14 15  1  0  0  0  0
 14 22  1  0  0  0  0
 16 17  1  0  0  0  0
 16 18  1  0  0  0  0
 16 26  1  0  0  0  0
 18 19  1  0  0  0  0
 18 29  1  0  0  0  0
 20 21  1  0  0  0  0
 23 24  1  0  0  0  0
 23 25  1  0  0  0  0
 26 27  1  0  0  0  0
 26 28  1  0  0  0  0
 26 31  1  0  0  0  0
 29 30  1  0  0  0  0
 31 32  1  0  0  0  0
 32 33  1  0  0  0  0
 32 34  2  0  0  0  0
 32 35  1  0  0  0  0
 33 36  1  0  0  0  0
 36 37  1  0  0  0  0
 36 39  2  0  0  0  0
 36 40  2  0  0  0  0
 37 38  1  0  0  0  0
M  END
> <ConfClashScore>
0 

> <ConfOneFourInteractionScore>
-0.977742 

> <ConfScore>
-0.170963 

> <ConfScorePBest>
0.00531345 

> <ConfTolerance>
1.4883 

$$$$
ChEBI.****
  PyMOL2.5          3D                             0

 40 42  0  0  0  0  0  0  0  0999 V2000
    9.6249   -9.8577   -2.4302 N   0  0  0  1  0  0  0  0  0  0  0  0
    9.7296   -8.4908   -2.4096 C   0  0  0  1  0  0  0  0  0  0  0  0
    8.7166  -10.6935   -1.6208 C   0  0  0  1  0  0  0  0  0  0  0  0
    7.7077  -10.5389   -1.9420 H   0  0  0  1  0  0  0  0  0  0  0  0
   10.5321  -10.2831   -3.3516 C   0  0  0  1  0  0  0  0  0  0  0  0
   10.6656  -11.2884   -3.5820 H   0  0  0  1  0  0  0  0  0  0  0  0
   10.7273   -8.1773   -3.3424 C   0  0  0  1  0  0  0  0  0  0  0  0
    9.0446   -7.6300   -1.6555 N   0  0  0  1  0  0  0  0  0  0  0  0
    9.0818  -12.1033   -1.7238 O   0  0  0  1  0  0  0  0  0  0  0  0
    8.8647  -10.3759   -0.1505 C   0  0  0  1  0  0  0  0  0  0  0  0
    9.1053   -9.3435   -0.0047 H   0  0  0  1  0  0  0  0  0  0  0  0
   11.2218   -9.3342   -3.9241 N   0  0  0  1  0  0  0  0  0  0  0  0
   11.0162   -6.8226   -3.4787 C   0  0  0  1  0  0  0  0  0  0  0  0
    9.4150   -6.3778   -1.8936 C   0  0  0  1  0  0  0  0  0  0  0  0
    8.9180   -5.6492   -1.3425 H   0  0  0  1  0  0  0  0  0  0  0  0
    9.9028  -12.4794   -0.6542 C   0  0  0  1  0  0  0  0  0  0  0  0
    9.4680  -13.3088   -0.1367 H   0  0  0  1  0  0  0  0  0  0  0  0
   10.0238  -11.2772    0.2957 C   0  0  0  1  0  0  0  0  0  0  0  0
   10.9651  -10.7832    0.1745 H   0  0  0  1  0  0  0  0  0  0  0  0
    7.6685  -10.6921    0.5630 O   0  0  0  1  0  0  0  0  0  0  0  0
    7.0514  -11.1329   -0.0255 H   0  0  0  1  0  0  0  0  0  0  0  0
   10.3444   -5.9248   -2.7497 N   0  0  0  1  0  0  0  0  0  0  0  0
   11.9713   -6.3448   -4.3367 N   0  0  0  1  0  0  0  0  0  0  0  0
   12.1241   -5.3796   -4.4115 H   0  0  0  1  0  0  0  0  0  0  0  0
   12.5017   -6.9680   -4.8758 H   0  0  0  1  0  0  0  0  0  0  0  0
   11.2539  -12.8617   -1.1625 C   0  0  0  1  0  0  0  0  0  0  0  0
   11.7041  -12.0296   -1.6623 H   0  0  0  1  0  0  0  0  0  0  0  0
   11.1684  -13.6833   -1.8426 H   0  0  0  1  0  0  0  0  0  0  0  0
    9.8682  -11.6795    1.6573 O   0  0  0  1  0  0  0  0  0  0  0  0
   10.7323  -11.7659    2.0666 H   0  0  0  1  0  0  0  0  0  0  0  0
   12.0590  -13.2468   -0.0235 O   0  0  0  1  0  0  0  0  0  0  0  0
   13.3369  -12.3680    0.5098 P   0  0  0  1  0  0  0  0  0  0  0  0
   14.4780  -12.4487   -0.7152 O   0  0  0  1  0  0  0  0  0  0  0  0
   12.9588  -10.9941    0.9093 O   0  0  0  1  0  0  0  0  0  0  0  0
   14.1022  -13.1635    1.6955 O   0  5  0  1  0  0  0  0  0  0  0  0
   15.1919  -13.5324   -1.5668 S   0  0  0  1  0  0  0  0  0  0  0  0
   16.5382  -13.5812   -0.9618 O   0  0  0  1  0  0  0  0  0  0  0  0
   16.5239  -14.1578   -0.1944 H   0  0  0  1  0  0  0  0  0  0  0  0
   14.4978  -14.8099   -1.4153 O   0  0  0  1  0  0  0  0  0  0  0  0
   15.2082  -13.0901   -2.9372 O   0  0  0  1  0  0  0  0  0  0  0  0
  1  2  1  0  0  0  0
  1  3  1  0  0  0  0
  1  5  1  0  0  0  0
  2  7  2  0  0  0  0
  2  8  1  0  0  0  0
  3  4  1  0  0  0  0
  3  9  1  0  0  0  0
  3 10  1  0  0  0  0
  5  6  1  0  0  0  0
  5 12  2  0  0  0  0
  7 12  1  0  0  0  0
  7 13  1  0  0  0  0
  8 14  2  0  0  0  0
  9 16  1  0  0  0  0
 10 11  1  0  0  0  0
 10 18  1  0  0  0  0
 10 20  1  0  0  0  0
 13 22  2  0  0  0  0
 13 23  1  0  0  0  0
 14 15  1  0  0  0  0
 14 22  1  0  0  0  0
 16 17  1  0  0  0  0
 16 18  1  0  0  0  0
 16 26  1  0  0  0  0
 18 19  1  0  0  0  0
 18 29  1  0  0  0  0
 20 21  1  0  0  0  0
 23 24  1  0  0  0  0
 23 25  1  0  0  0  0
 26 27  1  0  0  0  0
 26 28  1  0  0  0  0
 26 31  1  0  0  0  0
 29 30  1  0  0  0  0
 31 32  1  0  0  0  0
 32 33  1  0  0  0  0
 32 34  2  0  0  0  0
 32 35  1  0  0  0  0
 33 36  1  0  0  0  0
 36 37  1  0  0  0  0
 36 39  2  0  0  0  0
 36 40  2  0  0  0  0
 37 38  1  0  0  0  0
M  END
> <ConfClashScore>
0 

> <ConfOneFourInteractionScore>
-0.97979 

> <ConfScore>
-0.159428 

> <ConfScorePBest>
0.00521045 

> <ConfTolerance>
1.83573 

$$$$
ChEBI.****
  PyMOL2.5          3D                             0

 40 42  0  0  0  0  0  0  0  0999 V2000
    9.6116   -9.8494   -2.4561 N   0  0  0  1  0  0  0  0  0  0  0  0
    9.7116   -8.4824   -2.4262 C   0  0  0  1  0  0  0  0  0  0  0  0
    8.8247  -10.7054   -1.5467 C   0  0  0  1  0  0  0  0  0  0  0  0
    9.1909  -10.5961   -0.5473 H   0  0  0  1  0  0  0  0  0  0  0  0
   10.5325  -10.2666   -3.3675 C   0  0  0  1  0  0  0  0  0  0  0  0
   10.6723  -11.2702   -3.6019 H   0  0  0  1  0  0  0  0  0  0  0  0
   10.7208   -8.1603   -3.3435 C   0  0  0  1  0  0  0  0  0  0  0  0
    9.0138   -7.6281   -1.6764 N   0  0  0  1  0  0  0  0  0  0  0  0
    7.4699  -10.3640   -1.6084 O   0  0  0  1  0  0  0  0  0  0  0  0
    8.9093  -12.1748   -1.9892 C   0  0  0  1  0  0  0  0  0  0  0  0
    9.8565  -12.3888   -2.4386 H   0  0  0  1  0  0  0  0  0  0  0  0
   11.2268   -9.3123   -3.9252 N   0  0  0  1  0  0  0  0  0  0  0  0
   11.0071   -6.8040   -3.4682 C   0  0  0  1  0  0  0  0  0  0  0  0
    9.3833   -6.3734   -1.9023 C   0  0  0  1  0  0  0  0  0  0  0  0
    8.8766   -5.6496   -1.3537 H   0  0  0  1  0  0  0  0  0  0  0  0
    6.7498  -11.2562   -2.4774 C   0  0  0  1  0  0  0  0  0  0  0  0
    5.9760  -11.7575   -1.9345 H   0  0  0  1  0  0  0  0  0  0  0  0
    7.7849  -12.2806   -3.0043 C   0  0  0  1  0  0  0  0  0  0  0  0
    8.1242  -12.0164   -3.9840 H   0  0  0  1  0  0  0  0  0  0  0  0
    8.6939  -13.0580   -0.8875 O   0  0  0  1  0  0  0  0  0  0  0  0
    7.9866  -12.7158   -0.3360 H   0  0  0  1  0  0  0  0  0  0  0  0
   10.3228   -5.9126   -2.7431 N   0  0  0  1  0  0  0  0  0  0  0  0
   11.9836   -6.3722   -4.3266 N   0  0  0  1  0  0  0  0  0  0  0  0
   12.2176   -5.4213   -4.3640 H   0  0  0  1  0  0  0  0  0  0  0  0
   12.4480   -7.0142   -4.9032 H   0  0  0  1  0  0  0  0  0  0  0  0
    6.1564  -10.5060   -3.6011 C   0  0  0  1  0  0  0  0  0  0  0  0
    6.9397  -10.0935   -4.2021 H   0  0  0  1  0  0  0  0  0  0  0  0
    5.5485   -9.7148   -3.2145 H   0  0  0  1  0  0  0  0  0  0  0  0
    7.2367  -13.5993   -3.0290 O   0  0  0  1  0  0  0  0  0  0  0  0
    6.5342  -13.6666   -2.3782 H   0  0  0  1  0  0  0  0  0  0  0  0
    5.3400  -11.3793   -4.4163 O   0  0  0  1  0  0  0  0  0  0  0  0
    3.7003  -11.3529   -4.3945 P   0  0  0  1  0  0  0  0  0  0  0  0
    3.2899   -9.8082   -4.8988 O   0  0  0  1  0  0  0  0  0  0  0  0
    3.0648  -12.3326   -5.3038 O   0  0  0  1  0  0  0  0  0  0  0  0
    3.2759  -11.5530   -2.8440 O   0  5  0  1  0  0  0  0  0  0  0  0
    3.2536   -8.3512   -4.3113 S   0  0  0  1  0  0  0  0  0  0  0  0
    2.5312   -7.6746   -5.3515 O   0  0  0  1  0  0  0  0  0  0  0  0
    1.7555   -8.1879   -5.5891 H   0  0  0  1  0  0  0  0  0  0  0  0
    2.5130   -8.4003   -3.1289 O   0  0  0  1  0  0  0  0  0  0  0  0
    4.5644   -7.8251   -4.2079 O   0  0  0  1  0  0  0  0  0  0  0  0
  1  2  1  0  0  0  0
  1  3  1  0  0  0  0
  1  5  1  0  0  0  0
  2  7  2  0  0  0  0
  2  8  1  0  0  0  0
  3  4  1  0  0  0  0
  3  9  1  0  0  0  0
  3 10  1  0  0  0  0
  5  6  1  0  0  0  0
  5 12  2  0  0  0  0
  7 12  1  0  0  0  0
  7 13  1  0  0  0  0
  8 14  2  0  0  0  0
  9 16  1  0  0  0  0
 10 11  1  0  0  0  0
 10 18  1  0  0  0  0
 10 20  1  0  0  0  0
 13 22  2  0  0  0  0
 13 23  1  0  0  0  0
 14 15  1  0  0  0  0
 14 22  1  0  0  0  0
 16 17  1  0  0  0  0
 16 18  1  0  0  0  0
 16 26  1  0  0  0  0
 18 19  1  0  0  0  0
 18 29  1  0  0  0  0
 20 21  1  0  0  0  0
 23 24  1  0  0  0  0
 23 25  1  0  0  0  0
 26 27  1  0  0  0  0
 26 28  1  0  0  0  0
 26 31  1  0  0  0  0
 29 30  1  0  0  0  0
 31 32  1  0  0  0  0
 32 33  1  0  0  0  0
 32 34  2  0  0  0  0
 32 35  1  0  0  0  0
 33 36  1  0  0  0  0
 36 37  1  0  0  0  0
 36 39  2  0  0  0  0
 36 40  2  0  0  0  0
 37 38  1  0  0  0  0
M  END
> <ConfClashScore>
0 

> <ConfOneFourInteractionScore>
-0.977686 

> <ConfScore>
-0.154458 

> <ConfScorePBest>
0.00510745 

> <ConfTolerance>
1.70882 

$$$$
ChEBI.****
  PyMOL2.5          3D                             0

 40 42  0  0  0  0  0  0  0  0999 V2000
    9.6134   -9.8656   -2.4233 N   0  0  0  1  0  0  0  0  0  0  0  0
    9.7275   -8.4994   -2.4083 C   0  0  0  1  0  0  0  0  0  0  0  0
    8.7008  -10.6919   -1.6090 C   0  0  0  1  0  0  0  0  0  0  0  0
    8.9125  -10.5408   -0.5711 H   0  0  0  1  0  0  0  0  0  0  0  0
   10.5160  -10.3008   -3.3446 C   0  0  0  1  0  0  0  0  0  0  0  0
   10.6422  -11.3079   -3.5713 H   0  0  0  1  0  0  0  0  0  0  0  0
   10.7256   -8.1963   -3.3441 C   0  0  0  1  0  0  0  0  0  0  0  0
    9.0497   -7.6309   -1.6564 N   0  0  0  1  0  0  0  0  0  0  0  0
    7.3314  -10.3511   -1.8936 O   0  0  0  1  0  0  0  0  0  0  0  0
    8.8555  -12.1545   -1.9687 C   0  0  0  1  0  0  0  0  0  0  0  0
    9.2349  -12.2661   -2.9629 H   0  0  0  1  0  0  0  0  0  0  0  0
   11.2111   -9.3589   -3.9221 N   0  0  0  1  0  0  0  0  0  0  0  0
   11.0235   -6.8443   -3.4863 C   0  0  0  1  0  0  0  0  0  0  0  0
    9.4283   -6.3822   -1.9001 C   0  0  0  1  0  0  0  0  0  0  0  0
    8.9372   -5.6481   -1.3509 H   0  0  0  1  0  0  0  0  0  0  0  0
    6.6219  -11.5207   -2.3412 C   0  0  0  1  0  0  0  0  0  0  0  0
    5.6427  -11.5531   -1.9110 H   0  0  0  1  0  0  0  0  0  0  0  0
    7.4490  -12.6910   -1.8643 C   0  0  0  1  0  0  0  0  0  0  0  0
    7.3122  -13.5446   -2.4949 H   0  0  0  1  0  0  0  0  0  0  0  0
    9.7247  -12.8175   -1.0494 O   0  0  0  1  0  0  0  0  0  0  0  0
    9.3217  -12.8285   -0.1782 H   0  0  0  1  0  0  0  0  0  0  0  0
   10.3592   -5.9390   -2.7596 N   0  0  0  1  0  0  0  0  0  0  0  0
   11.9812   -6.3109   -4.3419 N   0  0  0  1  0  0  0  0  0  0  0  0
   12.0798   -5.3392   -4.4222 H   0  0  0  1  0  0  0  0  0  0  0  0
   12.5575   -6.9067   -4.8646 H   0  0  0  1  0  0  0  0  0  0  0  0
    6.5125  -11.5289   -3.8305 C   0  0  0  1  0  0  0  0  0  0  0  0
    6.1316  -10.5895   -4.1731 H   0  0  0  1  0  0  0  0  0  0  0  0
    5.8579  -12.3153   -4.1435 H   0  0  0  1  0  0  0  0  0  0  0  0
    7.1264  -13.0373   -0.5167 O   0  0  0  1  0  0  0  0  0  0  0  0
    7.7336  -13.7124   -0.2051 H   0  0  0  1  0  0  0  0  0  0  0  0
    7.8383  -11.7483   -4.3672 O   0  0  0  1  0  0  0  0  0  0  0  0
    8.0858  -12.8184   -5.5850 P   0  0  0  1  0  0  0  0  0  0  0  0
    7.3291  -14.1433   -5.0358 O   0  0  0  1  0  0  0  0  0  0  0  0
    7.4594  -12.4644   -6.8784 O   0  0  0  1  0  0  0  0  0  0  0  0
    9.6315  -13.2833   -5.7232 O   0  5  0  1  0  0  0  0  0  0  0  0
    6.1601  -14.9785   -5.8698 S   0  0  0  1  0  0  0  0  0  0  0  0
    5.2825  -15.2698   -4.7009 O   0  0  0  1  0  0  0  0  0  0  0  0
    5.7788  -15.7607   -4.0419 H   0  0  0  1  0  0  0  0  0  0  0  0
    5.6706  -14.1608   -6.8184 O   0  0  0  1  0  0  0  0  0  0  0  0
    6.8220  -16.1993   -6.1549 O   0  0  0  1  0  0  0  0  0  0  0  0
  1  2  1  0  0  0  0
  1  3  1  0  0  0  0
  1  5  1  0  0  0  0
  2  7  2  0  0  0  0
  2  8  1  0  0  0  0
  3  4  1  0  0  0  0
  3  9  1  0  0  0  0
  3 10  1  0  0  0  0
  5  6  1  0  0  0  0
  5 12  2  0  0  0  0
  7 12  1  0  0  0  0
  7 13  1  0  0  0  0
  8 14  2  0  0  0  0
  9 16  1  0  0  0  0
 10 11  1  0  0  0  0
 10 18  1  0  0  0  0
 10 20  1  0  0  0  0
 13 22  2  0  0  0  0
 13 23  1  0  0  0  0
 14 15  1  0  0  0  0
 14 22  1  0  0  0  0
 16 17  1  0  0  0  0
 16 18  1  0  0  0  0
 16 26  1  0  0  0  0
 18 19  1  0  0  0  0
 18 29  1  0  0  0  0
 20 21  1  0  0  0  0
 23 24  1  0  0  0  0
 23 25  1  0  0  0  0
 26 27  1  0  0  0  0
 26 28  1  0  0  0  0
 26 31  1  0  0  0  0
 29 30  1  0  0  0  0
 31 32  1  0  0  0  0
 32 33  1  0  0  0  0
 32 34  2  0  0  0  0
 32 35  1  0  0  0  0
 33 36  1  0  0  0  0
 36 37  1  0  0  0  0
 36 39  2  0  0  0  0
 36 40  2  0  0  0  0
 37 38  1  0  0  0  0
M  END
> <ConfClashScore>
0 

> <ConfOneFourInteractionScore>
-0.984496 

> <ConfScore>
-0.131494 

> <ConfScorePBest>
0.00500445 

> <ConfTolerance>
1.87908 

$$$$
ChEBI.****
  PyMOL2.5          3D                             0

 40 42  0  0  0  0  0  0  0  0999 V2000
    9.6343   -9.8598   -2.4243 N   0  0  0  1  0  0  0  0  0  0  0  0
    9.7302   -8.4922   -2.4102 C   0  0  0  1  0  0  0  0  0  0  0  0
    8.7275  -10.6972   -1.6149 C   0  0  0  1  0  0  0  0  0  0  0  0
    8.8050  -10.4158   -0.5855 H   0  0  0  1  0  0  0  0  0  0  0  0
   10.5485  -10.2841   -3.3393 C   0  0  0  1  0  0  0  0  0  0  0  0
   10.6895  -11.2897   -3.5639 H   0  0  0  1  0  0  0  0  0  0  0  0
   10.7302   -8.1770   -3.3398 C   0  0  0  1  0  0  0  0  0  0  0  0
    9.0362   -7.6320   -1.6636 N   0  0  0  1  0  0  0  0  0  0  0  0
    7.4090  -10.5565   -2.0596 O   0  0  0  1  0  0  0  0  0  0  0  0
    9.0745  -12.1842   -1.7900 C   0  0  0  1  0  0  0  0  0  0  0  0
   10.1232  -12.3192   -1.9542 H   0  0  0  1  0  0  0  0  0  0  0  0
   11.2348   -9.3337   -3.9134 N   0  0  0  1  0  0  0  0  0  0  0  0
   11.0111   -6.8213   -3.4817 C   0  0  0  1  0  0  0  0  0  0  0  0
    9.3997   -6.3787   -1.9064 C   0  0  0  1  0  0  0  0  0  0  0  0
    8.8955   -5.6505   -1.3613 H   0  0  0  1  0  0  0  0  0  0  0  0
    7.0373  -11.6401   -2.9300 C   0  0  0  1  0  0  0  0  0  0  0  0
    6.2032  -12.1725   -2.5229 H   0  0  0  1  0  0  0  0  0  0  0  0
    8.2732  -12.5689   -3.0212 C   0  0  0  1  0  0  0  0  0  0  0  0
    8.8293  -12.3835   -3.9163 H   0  0  0  1  0  0  0  0  0  0  0  0
    8.6682  -12.9457   -0.6519 O   0  0  0  1  0  0  0  0  0  0  0  0
    8.1435  -13.6964   -0.9394 H   0  0  0  1  0  0  0  0  0  0  0  0
   10.3303   -5.9241   -2.7604 N   0  0  0  1  0  0  0  0  0  0  0  0
   11.9672   -6.3416   -4.3377 N   0  0  0  1  0  0  0  0  0  0  0  0
   12.5904   -6.9604   -4.7726 H   0  0  0  1  0  0  0  0  0  0  0  0
   12.0280   -5.3797   -4.5150 H   0  0  0  1  0  0  0  0  0  0  0  0
    6.6869  -11.1237   -4.2672 C   0  0  0  1  0  0  0  0  0  0  0  0
    6.5913  -11.9439   -4.9477 H   0  0  0  1  0  0  0  0  0  0  0  0
    7.4613  -10.4674   -4.6055 H   0  0  0  1  0  0  0  0  0  0  0  0
    7.8879  -13.9435   -2.9753 O   0  0  0  1  0  0  0  0  0  0  0  0
    8.0852  -14.3599   -3.8175 H   0  0  0  1  0  0  0  0  0  0  0  0
    5.4357  -10.3982   -4.2167 O   0  0  0  1  0  0  0  0  0  0  0  0
    5.4161   -8.7597   -4.1481 P   0  0  0  1  0  0  0  0  0  0  0  0
    6.1250   -8.2780   -2.7715 O   0  0  0  1  0  0  0  0  0  0  0  0
    6.0906   -8.0880   -5.2813 O   0  0  0  1  0  0  0  0  0  0  0  0
    3.9115   -8.1951   -3.9438 O   0  5  0  1  0  0  0  0  0  0  0  0
    5.3558   -8.1572   -1.3040 S   0  0  0  1  0  0  0  0  0  0  0  0
    6.5854   -8.0770   -0.4655 O   0  0  0  1  0  0  0  0  0  0  0  0
    7.2789   -8.6094   -0.8620 H   0  0  0  1  0  0  0  0  0  0  0  0
    4.5659   -7.0697   -1.3438 O   0  0  0  1  0  0  0  0  0  0  0  0
    4.8637   -9.4769   -1.1233 O   0  0  0  1  0  0  0  0  0  0  0  0
  1  2  1  0  0  0  0
  1  3  1  0  0  0  0
  1  5  1  0  0  0  0
  2  7  2  0  0  0  0
  2  8  1  0  0  0  0
  3  4  1  0  0  0  0
  3  9  1  0  0  0  0
  3 10  1  0  0  0  0
  5  6  1  0  0  0  0
  5 12  2  0  0  0  0
  7 12  1  0  0  0  0
  7 13  1  0  0  0  0
  8 14  2  0  0  0  0
  9 16  1  0  0  0  0
 10 11  1  0  0  0  0
 10 18  1  0  0  0  0
 10 20  1  0  0  0  0
 13 22  2  0  0  0  0
 13 23  1  0  0  0  0
 14 15  1  0  0  0  0
 14 22  1  0  0  0  0
 16 17  1  0  0  0  0
 16 18  1  0  0  0  0
 16 26  1  0  0  0  0
 18 19  1  0  0  0  0
 18 29  1  0  0  0  0
 20 21  1  0  0  0  0
 23 24  1  0  0  0  0
 23 25  1  0  0  0  0
 26 27  1  0  0  0  0
 26 28  1  0  0  0  0
 26 31  1  0  0  0  0
 29 30  1  0  0  0  0
 31 32  1  0  0  0  0
 32 33  1  0  0  0  0
 32 34  2  0  0  0  0
 32 35  1  0  0  0  0
 33 36  1  0  0  0  0
 36 37  1  0  0  0  0
 36 39  2  0  0  0  0
 36 40  2  0  0  0  0
 37 38  1  0  0  0  0
M  END
> <ConfClashScore>
0 

> <ConfOneFourInteractionScore>
-0.97752 

> <ConfScore>
-0.121145 

> <ConfScorePBest>
0.00490145 

> <ConfTolerance>
3.44437 

$$$$
