# created with PyMOL 2.5.2
@<TRIPOS>MOLECULE
L11
6 5 1                   
SMALL
USER_CHARGES
@<TRIPOS>ATOM
1	   C	23.186	-11.531	0.000	C.2	1	UNK0	0.000	
2	   C	22.318	-12.030	0.000	C.3	1	UNK0	0.000	
3	   C	24.049	-12.034	0.000	C.3	1	UNK0	0.000	
4	   O	23.190	-10.530	0.000	O.2	1	UNK0	0.000	
5	   O	21.458	-11.523	0.000	O.3	1	UNK0	0.000	
6	   O	24.917	-11.535	0.000	O.3	1	UNK0	0.000	
@<TRIPOS>BOND
1 1 2 1
2 1 3 1
3 1 4 2
4 2 5 1
5 3 6 1
@<TRIPOS>SUBSTRUCTURE
1	UNK0	1	GROUP	1 ****	UNK
