L11.****
  PyMOL2.4          3D                             0

 12 11  0  0  0  0  0  0  0  0999 V2000
   23.7520  -11.5537   -0.1209 C   0  0  0  1  0  0  0  0  0  0  0  0
   22.3756  -12.1519   -0.0739 C   0  0  0  1  0  0  0  0  0  0  0  0
   22.1968  -12.5516    0.9025 H   0  0  0  1  0  0  0  0  0  0  0  0
   22.3055  -12.9357   -0.7989 H   0  0  0  1  0  0  0  0  0  0  0  0
   24.9071  -12.4791    0.1275 C   0  0  0  1  0  0  0  0  0  0  0  0
   24.8125  -13.3397   -0.5014 H   0  0  0  1  0  0  0  0  0  0  0  0
   24.9019  -12.7840    1.1531 H   0  0  0  1  0  0  0  0  0  0  0  0
   23.9240  -10.3789   -0.3487 O   0  0  0  1  0  0  0  0  0  0  0  0
   21.4019  -11.1587   -0.3603 O   0  0  0  1  0  0  0  0  0  0  0  0
   21.2332  -10.6384    0.4286 H   0  0  0  1  0  0  0  0  0  0  0  0
   26.1324  -11.8190   -0.1604 O   0  0  0  1  0  0  0  0  0  0  0  0
   26.2803  -11.8174   -1.1090 H   0  0  0  1  0  0  0  0  0  0  0  0
  1  2  1  0  0  0  0
  1  5  1  0  0  0  0
  1  8  2  0  0  0  0
  2  3  1  0  0  0  0
  2  4  1  0  0  0  0
  2  9  1  0  0  0  0
  5  6  1  0  0  0  0
  5  7  1  0  0  0  0
  5 11  1  0  0  0  0
  9 10  1  0  0  0  0
 11 12  1  0  0  0  0
M  END
> <ConfClashScore>
0 

> <ConfOneFourInteractionScore>
-1 

> <ConfScore>
-0.373963 

> <ConfScorePBest>
0.0466543 

> <ConfTolerance>
0.25 

$$$$
L11.****
  PyMOL2.4          3D                             0

 12 11  0  0  0  0  0  0  0  0999 V2000
   23.8312  -11.6626   -0.1074 C   0  0  0  1  0  0  0  0  0  0  0  0
   22.4011  -12.1157   -0.0784 C   0  0  0  1  0  0  0  0  0  0  0  0
   22.1832  -12.4942    0.8984 H   0  0  0  1  0  0  0  0  0  0  0  0
   22.2760  -12.8958   -0.7999 H   0  0  0  1  0  0  0  0  0  0  0  0
   24.1151  -10.3407   -0.7589 C   0  0  0  1  0  0  0  0  0  0  0  0
   23.4782   -9.6010   -0.3206 H   0  0  0  1  0  0  0  0  0  0  0  0
   23.9007  -10.4227   -1.8040 H   0  0  0  1  0  0  0  0  0  0  0  0
   24.7168  -12.3314    0.3722 O   0  0  0  1  0  0  0  0  0  0  0  0
   21.4823  -11.0728   -0.3752 O   0  0  0  1  0  0  0  0  0  0  0  0
   21.0911  -10.7489    0.4395 H   0  0  0  1  0  0  0  0  0  0  0  0
   25.4698   -9.9230   -0.6043 O   0  0  0  1  0  0  0  0  0  0  0  0
   25.5363   -9.3199    0.1396 H   0  0  0  1  0  0  0  0  0  0  0  0
  1  2  1  0  0  0  0
  1  5  1  0  0  0  0
  1  8  2  0  0  0  0
  2  3  1  0  0  0  0
  2  4  1  0  0  0  0
  2  9  1  0  0  0  0
  5  6  1  0  0  0  0
  5  7  1  0  0  0  0
  5 11  1  0  0  0  0
  9 10  1  0  0  0  0
 11 12  1  0  0  0  0
M  END
> <ConfClashScore>
0 

> <ConfOneFourInteractionScore>
-0.979941 

> <ConfScore>
-0.0417257 

> <ConfScorePBest>
0.0457356 

> <ConfTolerance>
0.25 

$$$$
L11.****
  PyMOL2.4          3D                             0

 12 11  0  0  0  0  0  0  0  0999 V2000
   23.7513  -11.5528   -0.1209 C   0  0  0  1  0  0  0  0  0  0  0  0
   22.3754  -12.1522   -0.0738 C   0  0  0  1  0  0  0  0  0  0  0  0
   22.1970  -12.5522    0.9025 H   0  0  0  1  0  0  0  0  0  0  0  0
   22.3058  -12.9358   -0.7990 H   0  0  0  1  0  0  0  0  0  0  0  0
   24.6944  -11.9184    0.9910 C   0  0  0  1  0  0  0  0  0  0  0  0
   25.0348  -12.9245    0.8621 H   0  0  0  1  0  0  0  0  0  0  0  0
   24.1965  -11.8277    1.9337 H   0  0  0  1  0  0  0  0  0  0  0  0
   24.0873  -10.8091   -1.0129 O   0  0  0  1  0  0  0  0  0  0  0  0
   21.4008  -11.1597   -0.3599 O   0  0  0  1  0  0  0  0  0  0  0  0
   21.2346  -10.6372    0.4281 H   0  0  0  1  0  0  0  0  0  0  0  0
   25.7983  -11.0263    0.9416 O   0  0  0  1  0  0  0  0  0  0  0  0
   25.6485  -10.2972    1.5477 H   0  0  0  1  0  0  0  0  0  0  0  0
  1  2  1  0  0  0  0
  1  5  1  0  0  0  0
  1  8  2  0  0  0  0
  2  3  1  0  0  0  0
  2  4  1  0  0  0  0
  2  9  1  0  0  0  0
  5  6  1  0  0  0  0
  5  7  1  0  0  0  0
  5 11  1  0  0  0  0
  9 10  1  0  0  0  0
 11 12  1  0  0  0  0
M  END
> <ConfClashScore>
0 

> <ConfOneFourInteractionScore>
-0.994285 

> <ConfScore>
0.00474073 

> <ConfScorePBest>
0.0448169 

> <ConfTolerance>
0.25 

$$$$
L11.****
  PyMOL2.4          3D                             0

 12 11  0  0  0  0  0  0  0  0999 V2000
   23.8323  -11.6627   -0.1073 C   0  0  0  1  0  0  0  0  0  0  0  0
   22.4010  -12.1156   -0.0784 C   0  0  0  1  0  0  0  0  0  0  0  0
   22.1830  -12.4942    0.8984 H   0  0  0  1  0  0  0  0  0  0  0  0
   22.2757  -12.8957   -0.7999 H   0  0  0  1  0  0  0  0  0  0  0  0
   24.8784  -12.6796    0.2546 C   0  0  0  1  0  0  0  0  0  0  0  0
   24.6196  -13.1369    1.1867 H   0  0  0  1  0  0  0  0  0  0  0  0
   25.8273  -12.1937    0.3464 H   0  0  0  1  0  0  0  0  0  0  0  0
   24.1319  -10.5307   -0.4082 O   0  0  0  1  0  0  0  0  0  0  0  0
   21.4825  -11.0725   -0.3751 O   0  0  0  1  0  0  0  0  0  0  0  0
   21.0904  -10.7494    0.4394 H   0  0  0  1  0  0  0  0  0  0  0  0
   24.9575  -13.6787   -0.7531 O   0  0  0  1  0  0  0  0  0  0  0  0
   24.4430  -14.4441   -0.4867 H   0  0  0  1  0  0  0  0  0  0  0  0
  1  2  1  0  0  0  0
  1  5  1  0  0  0  0
  1  8  2  0  0  0  0
  2  3  1  0  0  0  0
  2  4  1  0  0  0  0
  2  9  1  0  0  0  0
  5  6  1  0  0  0  0
  5  7  1  0  0  0  0
  5 11  1  0  0  0  0
  9 10  1  0  0  0  0
 11 12  1  0  0  0  0
M  END
> <ConfClashScore>
0 

> <ConfOneFourInteractionScore>
-0.991952 

> <ConfScore>
0.0166342 

> <ConfScorePBest>
0.0438982 

> <ConfTolerance>
0.25 

$$$$
L11.****
  PyMOL2.4          3D                             0

 12 11  0  0  0  0  0  0  0  0999 V2000
   23.7374  -11.5364   -0.1205 C   0  0  0  1  0  0  0  0  0  0  0  0
   22.3712  -12.1573   -0.0720 C   0  0  0  1  0  0  0  0  0  0  0  0
   22.2021  -12.5646    0.9029 H   0  0  0  1  0  0  0  0  0  0  0  0
   22.3115  -12.9384   -0.8007 H   0  0  0  1  0  0  0  0  0  0  0  0
   24.1669  -10.9310   -1.4276 C   0  0  0  1  0  0  0  0  0  0  0  0
   23.5399  -10.0936   -1.6526 H   0  0  0  1  0  0  0  0  0  0  0  0
   24.0771  -11.6629   -2.2029 H   0  0  0  1  0  0  0  0  0  0  0  0
   24.4613  -11.5231    0.8477 O   0  0  0  1  0  0  0  0  0  0  0  0
   21.3804  -11.1787   -0.3503 O   0  0  0  1  0  0  0  0  0  0  0  0
   21.2624  -10.6147    0.4176 H   0  0  0  1  0  0  0  0  0  0  0  0
   25.5168  -10.4979   -1.3447 O   0  0  0  1  0  0  0  0  0  0  0  0
   25.5405   -9.5556   -1.1629 H   0  0  0  1  0  0  0  0  0  0  0  0
  1  2  1  0  0  0  0
  1  5  1  0  0  0  0
  1  8  2  0  0  0  0
  2  3  1  0  0  0  0
  2  4  1  0  0  0  0
  2  9  1  0  0  0  0
  5  6  1  0  0  0  0
  5  7  1  0  0  0  0
  5 11  1  0  0  0  0
  9 10  1  0  0  0  0
 11 12  1  0  0  0  0
M  END
> <ConfClashScore>
0 

> <ConfOneFourInteractionScore>
-0.991952 

> <ConfScore>
0.0317424 

> <ConfScorePBest>
0.0429795 

> <ConfTolerance>
0.25 

$$$$
L11.****
  PyMOL2.4          3D                             0

 12 11  0  0  0  0  0  0  0  0999 V2000
   23.6179  -11.4098   -0.0843 C   0  0  0  1  0  0  0  0  0  0  0  0
   22.3409  -12.1985   -0.0423 C   0  0  0  1  0  0  0  0  0  0  0  0
   22.2539  -12.6984    0.8997 H   0  0  0  1  0  0  0  0  0  0  0  0
   22.3341  -12.9206   -0.8319 H   0  0  0  1  0  0  0  0  0  0  0  0
   24.8965  -12.1868   -0.2281 C   0  0  0  1  0  0  0  0  0  0  0  0
   25.3293  -12.3552    0.7359 H   0  0  0  1  0  0  0  0  0  0  0  0
   25.5857  -11.6418   -0.8387 H   0  0  0  1  0  0  0  0  0  0  0  0
   23.6195  -10.2033   -0.0061 O   0  0  0  1  0  0  0  0  0  0  0  0
   21.2597  -11.2928   -0.2085 O   0  0  0  1  0  0  0  0  0  0  0  0
   21.4584  -10.4700    0.2443 H   0  0  0  1  0  0  0  0  0  0  0  0
   24.5883  -13.4300   -0.8415 O   0  0  0  1  0  0  0  0  0  0  0  0
   24.4430  -14.0944   -0.1639 H   0  0  0  1  0  0  0  0  0  0  0  0
  1  2  1  0  0  0  0
  1  5  1  0  0  0  0
  1  8  2  0  0  0  0
  2  3  1  0  0  0  0
  2  4  1  0  0  0  0
  2  9  1  0  0  0  0
  5  6  1  0  0  0  0
  5  7  1  0  0  0  0
  5 11  1  0  0  0  0
  9 10  1  0  0  0  0
 11 12  1  0  0  0  0
M  END
> <ConfClashScore>
0 

> <ConfOneFourInteractionScore>
-0.979941 

> <ConfScore>
0.0527707 

> <ConfScorePBest>
0.0420608 

> <ConfTolerance>
0.25 

$$$$
L11.****
  PyMOL2.4          3D                             0

 12 11  0  0  0  0  0  0  0  0999 V2000
   23.8086  -11.6287   -0.1132 C   0  0  0  1  0  0  0  0  0  0  0  0
   22.3921  -12.1256   -0.0787 C   0  0  0  1  0  0  0  0  0  0  0  0
   22.1890  -12.5087    0.8995 H   0  0  0  1  0  0  0  0  0  0  0  0
   22.2886  -12.9107   -0.7983 H   0  0  0  1  0  0  0  0  0  0  0  0
   24.8757  -12.5725    0.3663 C   0  0  0  1  0  0  0  0  0  0  0  0
   25.5846  -12.7145   -0.4225 H   0  0  0  1  0  0  0  0  0  0  0  0
   24.4186  -13.5091    0.6086 H   0  0  0  1  0  0  0  0  0  0  0  0
   24.0805  -10.5191   -0.5088 O   0  0  0  1  0  0  0  0  0  0  0  0
   21.4416  -11.1128   -0.3743 O   0  0  0  1  0  0  0  0  0  0  0  0
   21.1452  -10.7034    0.4419 H   0  0  0  1  0  0  0  0  0  0  0  0
   25.5647  -12.0946    1.5138 O   0  0  0  1  0  0  0  0  0  0  0  0
   26.2039  -11.4288    1.2496 H   0  0  0  1  0  0  0  0  0  0  0  0
  1  2  1  0  0  0  0
  1  5  1  0  0  0  0
  1  8  2  0  0  0  0
  2  3  1  0  0  0  0
  2  4  1  0  0  0  0
  2  9  1  0  0  0  0
  5  6  1  0  0  0  0
  5  7  1  0  0  0  0
  5 11  1  0  0  0  0
  9 10  1  0  0  0  0
 11 12  1  0  0  0  0
M  END
> <ConfClashScore>
0 

> <ConfOneFourInteractionScore>
-0.993422 

> <ConfScore>
0.150958 

> <ConfScorePBest>
0.0411422 

> <ConfTolerance>
0.25 

$$$$
L11.****
  PyMOL2.4          3D                             0

 12 11  0  0  0  0  0  0  0  0999 V2000
   23.7928  -11.6053   -0.1165 C   0  0  0  1  0  0  0  0  0  0  0  0
   22.3889  -12.1362   -0.0763 C   0  0  0  1  0  0  0  0  0  0  0  0
   22.1841  -12.5213    0.9008 H   0  0  0  1  0  0  0  0  0  0  0  0
   22.2861  -12.9197   -0.7978 H   0  0  0  1  0  0  0  0  0  0  0  0
   24.1438  -10.5262    0.8692 C   0  0  0  1  0  0  0  0  0  0  0  0
   24.6648   -9.7480    0.3516 H   0  0  0  1  0  0  0  0  0  0  0  0
   24.7810  -10.9445    1.6201 H   0  0  0  1  0  0  0  0  0  0  0  0
   24.6061  -12.0260   -0.9059 O   0  0  0  1  0  0  0  0  0  0  0  0
   21.4662  -11.0988   -0.3751 O   0  0  0  1  0  0  0  0  0  0  0  0
   21.1470  -10.7088    0.4419 H   0  0  0  1  0  0  0  0  0  0  0  0
   23.0042   -9.9629    1.5049 O   0  0  0  1  0  0  0  0  0  0  0  0
   22.5780   -9.3433    0.9083 H   0  0  0  1  0  0  0  0  0  0  0  0
  1  2  1  0  0  0  0
  1  5  1  0  0  0  0
  1  8  2  0  0  0  0
  2  3  1  0  0  0  0
  2  4  1  0  0  0  0
  2  9  1  0  0  0  0
  5  6  1  0  0  0  0
  5  7  1  0  0  0  0
  5 11  1  0  0  0  0
  9 10  1  0  0  0  0
 11 12  1  0  0  0  0
M  END
> <ConfClashScore>
0 

> <ConfOneFourInteractionScore>
-0.972756 

> <ConfScore>
0.351481 

> <ConfScorePBest>
0.0402235 

> <ConfTolerance>
0.25 

$$$$
L11.****
  PyMOL2.4          3D                             0

 12 11  0  0  0  0  0  0  0  0999 V2000
   23.7521  -11.5535   -0.1232 C   0  0  0  1  0  0  0  0  0  0  0  0
   22.3778  -12.1543   -0.0738 C   0  0  0  1  0  0  0  0  0  0  0  0
   22.1889  -12.5485    0.9028 H   0  0  0  1  0  0  0  0  0  0  0  0
   22.2984  -12.9388   -0.7971 H   0  0  0  1  0  0  0  0  0  0  0  0
   23.8693  -10.1596   -0.6739 C   0  0  0  1  0  0  0  0  0  0  0  0
   24.8790   -9.9716   -0.9740 H   0  0  0  1  0  0  0  0  0  0  0  0
   23.5802   -9.4491    0.0721 H   0  0  0  1  0  0  0  0  0  0  0  0
   24.7231  -12.1621    0.2623 O   0  0  0  1  0  0  0  0  0  0  0  0
   21.4398  -11.1299   -0.3695 O   0  0  0  1  0  0  0  0  0  0  0  0
   21.2080  -10.6649    0.4378 H   0  0  0  1  0  0  0  0  0  0  0  0
   23.0060  -10.0571   -1.7969 O   0  0  0  1  0  0  0  0  0  0  0  0
   22.1708   -9.6700   -1.5247 H   0  0  0  1  0  0  0  0  0  0  0  0
  1  2  1  0  0  0  0
  1  5  1  0  0  0  0
  1  8  2  0  0  0  0
  2  3  1  0  0  0  0
  2  4  1  0  0  0  0
  2  9  1  0  0  0  0
  5  6  1  0  0  0  0
  5  7  1  0  0  0  0
  5 11  1  0  0  0  0
  9 10  1  0  0  0  0
 11 12  1  0  0  0  0
M  END
> <ConfClashScore>
0 

> <ConfOneFourInteractionScore>
-0.960746 

> <ConfScore>
0.391308 

> <ConfScorePBest>
0.0393048 

> <ConfTolerance>
0.25 

$$$$
L11.****
  PyMOL2.4          3D                             0

 12 11  0  0  0  0  0  0  0  0999 V2000
   23.6517  -11.4465   -0.0592 C   0  0  0  1  0  0  0  0  0  0  0  0
   22.3440  -12.1824   -0.0327 C   0  0  0  1  0  0  0  0  0  0  0  0
   22.2700  -12.7126    0.8937 H   0  0  0  1  0  0  0  0  0  0  0  0
   22.3282  -12.8786   -0.8450 H   0  0  0  1  0  0  0  0  0  0  0  0
   24.6968  -11.8545    0.9376 C   0  0  0  1  0  0  0  0  0  0  0  0
   24.5007  -12.8535    1.2669 H   0  0  0  1  0  0  0  0  0  0  0  0
   24.6655  -11.1896    1.7753 H   0  0  0  1  0  0  0  0  0  0  0  0
   23.8236  -10.5077   -0.8014 O   0  0  0  1  0  0  0  0  0  0  0  0
   21.2207  -11.3218   -0.1524 O   0  0  0  1  0  0  0  0  0  0  0  0
   21.4503  -10.4481    0.1726 H   0  0  0  1  0  0  0  0  0  0  0  0
   25.9855  -11.8005    0.3432 O   0  0  0  1  0  0  0  0  0  0  0  0
   26.3158  -12.6924    0.2128 H   0  0  0  1  0  0  0  0  0  0  0  0
  1  2  1  0  0  0  0
  1  5  1  0  0  0  0
  1  8  2  0  0  0  0
  2  3  1  0  0  0  0
  2  4  1  0  0  0  0
  2  9  1  0  0  0  0
  5  6  1  0  0  0  0
  5  7  1  0  0  0  0
  5 11  1  0  0  0  0
  9 10  1  0  0  0  0
 11 12  1  0  0  0  0
M  END
> <ConfClashScore>
0 

> <ConfOneFourInteractionScore>
-0.98857 

> <ConfScore>
0.406303 

> <ConfScorePBest>
0.0383861 

> <ConfTolerance>
0.25 

$$$$
L11.****
  PyMOL2.4          3D                             0

 12 11  0  0  0  0  0  0  0  0999 V2000
   23.8013  -11.6198   -0.1143 C   0  0  0  1  0  0  0  0  0  0  0  0
   22.3900  -12.1288   -0.0784 C   0  0  0  1  0  0  0  0  0  0  0  0
   22.1914  -12.5141    0.8999 H   0  0  0  1  0  0  0  0  0  0  0  0
   22.2925  -12.9144   -0.7982 H   0  0  0  1  0  0  0  0  0  0  0  0
   24.2173  -10.6820    0.9831 C   0  0  0  1  0  0  0  0  0  0  0  0
   23.6818   -9.7629    0.8673 H   0  0  0  1  0  0  0  0  0  0  0  0
   25.2674  -10.4972    0.8938 H   0  0  0  1  0  0  0  0  0  0  0  0
   24.5707  -11.9487   -0.9870 O   0  0  0  1  0  0  0  0  0  0  0  0
   21.4295  -11.1233   -0.3725 O   0  0  0  1  0  0  0  0  0  0  0  0
   21.1603  -10.6897    0.4405 H   0  0  0  1  0  0  0  0  0  0  0  0
   23.9570  -11.1972    2.2819 O   0  0  0  1  0  0  0  0  0  0  0  0
   23.0279  -11.0797    2.4930 H   0  0  0  1  0  0  0  0  0  0  0  0
  1  2  1  0  0  0  0
  1  5  1  0  0  0  0
  1  8  2  0  0  0  0
  2  3  1  0  0  0  0
  2  4  1  0  0  0  0
  2  9  1  0  0  0  0
  5  6  1  0  0  0  0
  5  7  1  0  0  0  0
  5 11  1  0  0  0  0
  9 10  1  0  0  0  0
 11 12  1  0  0  0  0
M  END
> <ConfClashScore>
0 

> <ConfOneFourInteractionScore>
-0.984766 

> <ConfScore>
0.407231 

> <ConfScorePBest>
0.0374674 

> <ConfTolerance>
0.25 

$$$$
L11.****
  PyMOL2.4          3D                             0

 12 11  0  0  0  0  0  0  0  0999 V2000
   23.6639  -11.4559   -0.0716 C   0  0  0  1  0  0  0  0  0  0  0  0
   22.3466  -12.1797   -0.0399 C   0  0  0  1  0  0  0  0  0  0  0  0
   22.2604  -12.6899    0.8966 H   0  0  0  1  0  0  0  0  0  0  0  0
   22.3300  -12.8924   -0.8378 H   0  0  0  1  0  0  0  0  0  0  0  0
   24.8038  -12.1439   -0.7642 C   0  0  0  1  0  0  0  0  0  0  0  0
   24.8240  -11.8475   -1.7921 H   0  0  0  1  0  0  0  0  0  0  0  0
   24.6689  -13.2034   -0.7005 H   0  0  0  1  0  0  0  0  0  0  0  0
   23.8007  -10.3680    0.4376 O   0  0  0  1  0  0  0  0  0  0  0  0
   21.2319  -11.3102   -0.1862 O   0  0  0  1  0  0  0  0  0  0  0  0
   21.4323  -10.4618    0.2159 H   0  0  0  1  0  0  0  0  0  0  0  0
   26.0338  -11.7895   -0.1491 O   0  0  0  1  0  0  0  0  0  0  0  0
   26.6002  -12.5628   -0.0961 H   0  0  0  1  0  0  0  0  0  0  0  0
  1  2  1  0  0  0  0
  1  5  1  0  0  0  0
  1  8  2  0  0  0  0
  2  3  1  0  0  0  0
  2  4  1  0  0  0  0
  2  9  1  0  0  0  0
  5  6  1  0  0  0  0
  5  7  1  0  0  0  0
  5 11  1  0  0  0  0
  9 10  1  0  0  0  0
 11 12  1  0  0  0  0
M  END
> <ConfClashScore>
0 

> <ConfOneFourInteractionScore>
-0.98857 

> <ConfScore>
0.407459 

> <ConfScorePBest>
0.0365487 

> <ConfTolerance>
0.25 

$$$$
L11.****
  PyMOL2.4          3D                             0

 12 11  0  0  0  0  0  0  0  0999 V2000
   23.8820  -11.7366    0.0951 C   0  0  0  1  0  0  0  0  0  0  0  0
   22.4193  -12.0916    0.0669 C   0  0  0  1  0  0  0  0  0  0  0  0
   22.2349  -12.8369    0.8122 H   0  0  0  1  0  0  0  0  0  0  0  0
   22.1830  -12.4865   -0.8991 H   0  0  0  1  0  0  0  0  0  0  0  0
   24.3414  -10.4373    0.6892 C   0  0  0  1  0  0  0  0  0  0  0  0
   24.6203   -9.7601   -0.0908 H   0  0  0  1  0  0  0  0  0  0  0  0
   25.1804  -10.6081    1.3309 H   0  0  0  1  0  0  0  0  0  0  0  0
   24.6982  -12.5015   -0.3635 O   0  0  0  1  0  0  0  0  0  0  0  0
   21.5735  -10.9793    0.3203 O   0  0  0  1  0  0  0  0  0  0  0  0
   20.9723  -10.8591   -0.4184 H   0  0  0  1  0  0  0  0  0  0  0  0
   23.2652   -9.8921    1.4384 O   0  0  0  1  0  0  0  0  0  0  0  0
   23.1444  -10.4016    2.2430 H   0  0  0  1  0  0  0  0  0  0  0  0
  1  2  1  0  0  0  0
  1  5  1  0  0  0  0
  1  8  2  0  0  0  0
  2  3  1  0  0  0  0
  2  4  1  0  0  0  0
  2  9  1  0  0  0  0
  5  6  1  0  0  0  0
  5  7  1  0  0  0  0
  5 11  1  0  0  0  0
  9 10  1  0  0  0  0
 11 12  1  0  0  0  0
M  END
> <ConfClashScore>
0 

> <ConfOneFourInteractionScore>
-0.960746 

> <ConfScore>
0.416095 

> <ConfScorePBest>
0.03563 

> <ConfTolerance>
0.25 

$$$$
L11.****
  PyMOL2.4          3D                             0

 12 11  0  0  0  0  0  0  0  0999 V2000
   23.7634  -11.5673    0.1237 C   0  0  0  1  0  0  0  0  0  0  0  0
   22.3799  -12.1484    0.0714 C   0  0  0  1  0  0  0  0  0  0  0  0
   22.2952  -12.9263    0.8012 H   0  0  0  1  0  0  0  0  0  0  0  0
   22.2025  -12.5523   -0.9034 H   0  0  0  1  0  0  0  0  0  0  0  0
   24.0086  -10.4767    1.1273 C   0  0  0  1  0  0  0  0  0  0  0  0
   23.3222  -10.5996    1.9388 H   0  0  0  1  0  0  0  0  0  0  0  0
   23.8364   -9.5327    0.6538 H   0  0  0  1  0  0  0  0  0  0  0  0
   24.6422  -11.9584   -0.6087 O   0  0  0  1  0  0  0  0  0  0  0  0
   21.4129  -11.1369    0.3459 O   0  0  0  1  0  0  0  0  0  0  0  0
   21.2112  -10.6587   -0.4617 H   0  0  0  1  0  0  0  0  0  0  0  0
   25.3302  -10.4879    1.6469 O   0  0  0  1  0  0  0  0  0  0  0  0
   25.8819   -9.8945    1.1321 H   0  0  0  1  0  0  0  0  0  0  0  0
  1  2  1  0  0  0  0
  1  5  1  0  0  0  0
  1  8  2  0  0  0  0
  2  3  1  0  0  0  0
  2  4  1  0  0  0  0
  2  9  1  0  0  0  0
  5  6  1  0  0  0  0
  5  7  1  0  0  0  0
  5 11  1  0  0  0  0
  9 10  1  0  0  0  0
 11 12  1  0  0  0  0
M  END
> <ConfClashScore>
0 

> <ConfOneFourInteractionScore>
-0.974226 

> <ConfScore>
0.422033 

> <ConfScorePBest>
0.0347114 

> <ConfTolerance>
0.25 

$$$$
L11.****
  PyMOL2.4          3D                             0

 12 11  0  0  0  0  0  0  0  0999 V2000
   23.6694  -11.4604    0.1003 C   0  0  0  1  0  0  0  0  0  0  0  0
   22.3514  -12.1798    0.0527 C   0  0  0  1  0  0  0  0  0  0  0  0
   22.3252  -12.9216    0.8233 H   0  0  0  1  0  0  0  0  0  0  0  0
   22.2402  -12.6516   -0.9012 H   0  0  0  1  0  0  0  0  0  0  0  0
   23.8616  -10.3241   -0.8611 C   0  0  0  1  0  0  0  0  0  0  0  0
   22.9054   -9.9530   -1.1660 H   0  0  0  1  0  0  0  0  0  0  0  0
   24.3992  -10.6728   -1.7180 H   0  0  0  1  0  0  0  0  0  0  0  0
   24.5377  -11.7812    0.8779 O   0  0  0  1  0  0  0  0  0  0  0  0
   21.2866  -11.2609    0.2490 O   0  0  0  1  0  0  0  0  0  0  0  0
   21.3922  -10.5158   -0.3471 H   0  0  0  1  0  0  0  0  0  0  0  0
   24.5980   -9.2740   -0.2376 O   0  0  0  1  0  0  0  0  0  0  0  0
   23.9888   -8.6230    0.1184 H   0  0  0  1  0  0  0  0  0  0  0  0
  1  2  1  0  0  0  0
  1  5  1  0  0  0  0
  1  8  2  0  0  0  0
  2  3  1  0  0  0  0
  2  4  1  0  0  0  0
  2  9  1  0  0  0  0
  5  6  1  0  0  0  0
  5  7  1  0  0  0  0
  5 11  1  0  0  0  0
  9 10  1  0  0  0  0
 11 12  1  0  0  0  0
M  END
> <ConfClashScore>
0 

> <ConfOneFourInteractionScore>
-0.986237 

> <ConfScore>
0.42224 

> <ConfScorePBest>
0.0337927 

> <ConfTolerance>
0.25 

$$$$
L11.****
  PyMOL2.4          3D                             0

 12 11  0  0  0  0  0  0  0  0999 V2000
   23.7552  -11.5584   -0.1209 C   0  0  0  1  0  0  0  0  0  0  0  0
   22.3769  -12.1505   -0.0743 C   0  0  0  1  0  0  0  0  0  0  0  0
   22.1956  -12.5484    0.9023 H   0  0  0  1  0  0  0  0  0  0  0  0
   22.3041  -12.9347   -0.7986 H   0  0  0  1  0  0  0  0  0  0  0  0
   23.9663  -10.2430    0.5751 C   0  0  0  1  0  0  0  0  0  0  0  0
   25.0084  -10.0006    0.5649 H   0  0  0  1  0  0  0  0  0  0  0  0
   23.6273  -10.3197    1.5870 H   0  0  0  1  0  0  0  0  0  0  0  0
   24.6399  -12.1411   -0.7034 O   0  0  0  1  0  0  0  0  0  0  0  0
   21.4076  -11.1535   -0.3625 O   0  0  0  1  0  0  0  0  0  0  0  0
   21.2257  -10.6445    0.4309 H   0  0  0  1  0  0  0  0  0  0  0  0
   23.2394   -9.2184   -0.0872 O   0  0  0  1  0  0  0  0  0  0  0  0
   23.7233   -8.9344   -0.8662 H   0  0  0  1  0  0  0  0  0  0  0  0
  1  2  1  0  0  0  0
  1  5  1  0  0  0  0
  1  8  2  0  0  0  0
  2  3  1  0  0  0  0
  2  4  1  0  0  0  0
  2  9  1  0  0  0  0
  5  6  1  0  0  0  0
  5  7  1  0  0  0  0
  5 11  1  0  0  0  0
  9 10  1  0  0  0  0
 11 12  1  0  0  0  0
M  END
> <ConfClashScore>
0 

> <ConfOneFourInteractionScore>
-0.978471 

> <ConfScore>
0.422339 

> <ConfScorePBest>
0.032874 

> <ConfTolerance>
0.25 

$$$$
L11.****
  PyMOL2.4          3D                             0

 12 11  0  0  0  0  0  0  0  0999 V2000
   23.8360  -11.6694   -0.1058 C   0  0  0  1  0  0  0  0  0  0  0  0
   22.4027  -12.1132   -0.0781 C   0  0  0  1  0  0  0  0  0  0  0  0
   22.1818  -12.4914    0.8981 H   0  0  0  1  0  0  0  0  0  0  0  0
   22.2729  -12.8918   -0.8006 H   0  0  0  1  0  0  0  0  0  0  0  0
   24.8281  -12.5762   -0.7736 C   0  0  0  1  0  0  0  0  0  0  0  0
   25.7615  -12.5238   -0.2531 H   0  0  0  1  0  0  0  0  0  0  0  0
   24.9665  -12.2637   -1.7875 H   0  0  0  1  0  0  0  0  0  0  0  0
   24.2170  -10.6295    0.3792 O   0  0  0  1  0  0  0  0  0  0  0  0
   21.4915  -11.0649   -0.3741 O   0  0  0  1  0  0  0  0  0  0  0  0
   21.0800  -10.7593    0.4376 H   0  0  0  1  0  0  0  0  0  0  0  0
   24.3544  -13.9161   -0.7552 O   0  0  0  1  0  0  0  0  0  0  0  0
   24.2424  -14.2040    0.1537 H   0  0  0  1  0  0  0  0  0  0  0  0
  1  2  1  0  0  0  0
  1  5  1  0  0  0  0
  1  8  2  0  0  0  0
  2  3  1  0  0  0  0
  2  4  1  0  0  0  0
  2  9  1  0  0  0  0
  5  6  1  0  0  0  0
  5  7  1  0  0  0  0
  5 11  1  0  0  0  0
  9 10  1  0  0  0  0
 11 12  1  0  0  0  0
M  END
> <ConfClashScore>
0 

> <ConfOneFourInteractionScore>
-0.974226 

> <ConfScore>
0.443546 

> <ConfScorePBest>
0.0319553 

> <ConfTolerance>
0.25 

$$$$
L11.****
  PyMOL2.4          3D                             0

 12 11  0  0  0  0  0  0  0  0999 V2000
   23.7808  -11.5917   -0.1163 C   0  0  0  1  0  0  0  0  0  0  0  0
   22.3824  -12.1371   -0.0767 C   0  0  0  1  0  0  0  0  0  0  0  0
   22.1977  -12.5311    0.9008 H   0  0  0  1  0  0  0  0  0  0  0  0
   22.3022  -12.9221   -0.7993 H   0  0  0  1  0  0  0  0  0  0  0  0
   24.1726  -10.8032   -1.3345 C   0  0  0  1  0  0  0  0  0  0  0  0
   25.2275  -10.6270   -1.3019 H   0  0  0  1  0  0  0  0  0  0  0  0
   23.6535   -9.8677   -1.3166 H   0  0  0  1  0  0  0  0  0  0  0  0
   24.5584  -11.7775    0.7906 O   0  0  0  1  0  0  0  0  0  0  0  0
   21.3962  -11.1562   -0.3629 O   0  0  0  1  0  0  0  0  0  0  0  0
   21.2057  -10.6519    0.4315 H   0  0  0  1  0  0  0  0  0  0  0  0
   23.8625  -11.4693   -2.5498 O   0  0  0  1  0  0  0  0  0  0  0  0
   23.4465  -10.8524   -3.1563 H   0  0  0  1  0  0  0  0  0  0  0  0
  1  2  1  0  0  0  0
  1  5  1  0  0  0  0
  1  8  2  0  0  0  0
  2  3  1  0  0  0  0
  2  4  1  0  0  0  0
  2  9  1  0  0  0  0
  5  6  1  0  0  0  0
  5  7  1  0  0  0  0
  5 11  1  0  0  0  0
  9 10  1  0  0  0  0
 11 12  1  0  0  0  0
M  END
> <ConfClashScore>
0 

> <ConfOneFourInteractionScore>
-0.984766 

> <ConfScore>
0.46282 

> <ConfScorePBest>
0.0310366 

> <ConfTolerance>
0.25 

$$$$
L11.****
  PyMOL2.4          3D                             0

 12 11  0  0  0  0  0  0  0  0999 V2000
   23.7695  -11.5750    0.1236 C   0  0  0  1  0  0  0  0  0  0  0  0
   22.3810  -12.1442    0.0722 C   0  0  0  1  0  0  0  0  0  0  0  0
   22.2906  -12.9227    0.8006 H   0  0  0  1  0  0  0  0  0  0  0  0
   22.1987  -12.5447   -0.9031 H   0  0  0  1  0  0  0  0  0  0  0  0
   23.8962  -10.1090    0.4316 C   0  0  0  1  0  0  0  0  0  0  0  0
   22.9513   -9.6401    0.2524 H   0  0  0  1  0  0  0  0  0  0  0  0
   24.6336   -9.6866   -0.2186 H   0  0  0  1  0  0  0  0  0  0  0  0
   24.7434  -12.2636   -0.0738 O   0  0  0  1  0  0  0  0  0  0  0  0
   21.4271  -11.1292    0.3488 O   0  0  0  1  0  0  0  0  0  0  0  0
   21.1981  -10.6742   -0.4650 H   0  0  0  1  0  0  0  0  0  0  0  0
   24.2794   -9.8556    1.7753 O   0  0  0  1  0  0  0  0  0  0  0  0
   25.1384  -10.2500    1.9434 H   0  0  0  1  0  0  0  0  0  0  0  0
  1  2  1  0  0  0  0
  1  5  1  0  0  0  0
  1  8  2  0  0  0  0
  2  3  1  0  0  0  0
  2  4  1  0  0  0  0
  2  9  1  0  0  0  0
  5  6  1  0  0  0  0
  5  7  1  0  0  0  0
  5 11  1  0  0  0  0
  9 10  1  0  0  0  0
 11 12  1  0  0  0  0
M  END
> <ConfClashScore>
0 

> <ConfOneFourInteractionScore>
-0.974226 

> <ConfScore>
0.488159 

> <ConfScorePBest>
0.0301179 

> <ConfTolerance>
0.25 

$$$$
L11.****
  PyMOL2.4          3D                             0

 12 11  0  0  0  0  0  0  0  0999 V2000
   23.7430  -11.5445    0.1150 C   0  0  0  1  0  0  0  0  0  0  0  0
   22.3700  -12.1505    0.0675 C   0  0  0  1  0  0  0  0  0  0  0  0
   22.3109  -12.9195    0.8091 H   0  0  0  1  0  0  0  0  0  0  0  0
   22.2190  -12.5769   -0.9022 H   0  0  0  1  0  0  0  0  0  0  0  0
   24.2350  -10.8681   -1.1339 C   0  0  0  1  0  0  0  0  0  0  0  0
   25.0019  -11.4793   -1.5620 H   0  0  0  1  0  0  0  0  0  0  0  0
   24.6466   -9.9199   -0.8575 H   0  0  0  1  0  0  0  0  0  0  0  0
   24.4238  -11.5974    1.1127 O   0  0  0  1  0  0  0  0  0  0  0  0
   21.3381  -11.2060    0.3120 O   0  0  0  1  0  0  0  0  0  0  0  0
   21.2840  -10.5926   -0.4245 H   0  0  0  1  0  0  0  0  0  0  0  0
   23.2510  -10.6473   -2.1190 O   0  0  0  1  0  0  0  0  0  0  0  0
   23.3117  -11.3299   -2.7913 H   0  0  0  1  0  0  0  0  0  0  0  0
  1  2  1  0  0  0  0
  1  5  1  0  0  0  0
  1  8  2  0  0  0  0
  2  3  1  0  0  0  0
  2  4  1  0  0  0  0
  2  9  1  0  0  0  0
  5  6  1  0  0  0  0
  5  7  1  0  0  0  0
  5 11  1  0  0  0  0
  9 10  1  0  0  0  0
 11 12  1  0  0  0  0
M  END
> <ConfClashScore>
0 

> <ConfOneFourInteractionScore>
-0.974226 

> <ConfScore>
0.502882 

> <ConfScorePBest>
0.0291992 

> <ConfTolerance>
0.25 

$$$$
L11.****
  PyMOL2.4          3D                             0

 12 11  0  0  0  0  0  0  0  0999 V2000
   23.9097  -11.7927    0.0545 C   0  0  0  1  0  0  0  0  0  0  0  0
   22.4359  -12.0795    0.0362 C   0  0  0  1  0  0  0  0  0  0  0  0
   22.1940  -12.7397    0.8427 H   0  0  0  1  0  0  0  0  0  0  0  0
   22.1769  -12.5414   -0.8935 H   0  0  0  1  0  0  0  0  0  0  0  0
   24.8064  -12.8591    0.6183 C   0  0  0  1  0  0  0  0  0  0  0  0
   24.2489  -13.4656    1.3011 H   0  0  0  1  0  0  0  0  0  0  0  0
   25.6228  -12.3985    1.1344 H   0  0  0  1  0  0  0  0  0  0  0  0
   24.3569  -10.7508   -0.3653 O   0  0  0  1  0  0  0  0  0  0  0  0
   21.7021  -10.8723    0.1812 O   0  0  0  1  0  0  0  0  0  0  0  0
   20.8464  -10.9644   -0.2441 H   0  0  0  1  0  0  0  0  0  0  0  0
   25.3127  -13.6745   -0.4284 O   0  0  0  1  0  0  0  0  0  0  0  0
   24.7604  -14.4540   -0.5230 H   0  0  0  1  0  0  0  0  0  0  0  0
  1  2  1  0  0  0  0
  1  5  1  0  0  0  0
  1  8  2  0  0  0  0
  2  3  1  0  0  0  0
  2  4  1  0  0  0  0
  2  9  1  0  0  0  0
  5  6  1  0  0  0  0
  5  7  1  0  0  0  0
  5 11  1  0  0  0  0
  9 10  1  0  0  0  0
 11 12  1  0  0  0  0
M  END
> <ConfClashScore>
0 

> <ConfOneFourInteractionScore>
-0.987707 

> <ConfScore>
0.510392 

> <ConfScorePBest>
0.0282806 

> <ConfTolerance>
0.25 

$$$$
L11.****
  PyMOL2.4          3D                             0

 12 11  0  0  0  0  0  0  0  0999 V2000
   23.6524  -11.4455   -0.0586 C   0  0  0  1  0  0  0  0  0  0  0  0
   22.3437  -12.1826   -0.0323 C   0  0  0  1  0  0  0  0  0  0  0  0
   22.2702  -12.7138    0.8936 H   0  0  0  1  0  0  0  0  0  0  0  0
   22.3278  -12.8781   -0.8453 H   0  0  0  1  0  0  0  0  0  0  0  0
   24.3056  -11.1650    1.2661 C   0  0  0  1  0  0  0  0  0  0  0  0
   25.0301  -11.9251    1.4713 H   0  0  0  1  0  0  0  0  0  0  0  0
   23.5610  -11.1644    2.0346 H   0  0  0  1  0  0  0  0  0  0  0  0
   24.1593  -11.0928   -1.0980 O   0  0  0  1  0  0  0  0  0  0  0  0
   21.2200  -11.3223   -0.1508 O   0  0  0  1  0  0  0  0  0  0  0  0
   21.4509  -10.4476    0.1705 H   0  0  0  1  0  0  0  0  0  0  0  0
   24.9516   -9.8940    1.2345 O   0  0  0  1  0  0  0  0  0  0  0  0
   24.2978   -9.2056    1.0921 H   0  0  0  1  0  0  0  0  0  0  0  0
  1  2  1  0  0  0  0
  1  5  1  0  0  0  0
  1  8  2  0  0  0  0
  2  3  1  0  0  0  0
  2  4  1  0  0  0  0
  2  9  1  0  0  0  0
  5  6  1  0  0  0  0
  5  7  1  0  0  0  0
  5 11  1  0  0  0  0
  9 10  1  0  0  0  0
 11 12  1  0  0  0  0
M  END
> <ConfClashScore>
0 

> <ConfOneFourInteractionScore>
-0.987707 

> <ConfScore>
0.523239 

> <ConfScorePBest>
0.0273619 

> <ConfTolerance>
0.25 

$$$$
L11.****
  PyMOL2.4          3D                             0

 12 11  0  0  0  0  0  0  0  0999 V2000
   23.9351  -11.8405    0.0405 C   0  0  0  1  0  0  0  0  0  0  0  0
   22.4460  -12.0613    0.0273 C   0  0  0  1  0  0  0  0  0  0  0  0
   22.1877  -12.6929    0.8515 H   0  0  0  1  0  0  0  0  0  0  0  0
   22.1812  -12.5447   -0.8898 H   0  0  0  1  0  0  0  0  0  0  0  0
   24.7676  -12.7439   -0.8256 C   0  0  0  1  0  0  0  0  0  0  0  0
   25.6487  -12.2225   -1.1365 H   0  0  0  1  0  0  0  0  0  0  0  0
   24.1999  -13.0307   -1.6861 H   0  0  0  1  0  0  0  0  0  0  0  0
   24.4405  -10.9753    0.7170 O   0  0  0  1  0  0  0  0  0  0  0  0
   21.7046  -10.8533    0.1329 O   0  0  0  1  0  0  0  0  0  0  0  0
   20.8104  -10.9973   -0.1853 H   0  0  0  1  0  0  0  0  0  0  0  0
   25.1411  -13.9065   -0.1007 O   0  0  0  1  0  0  0  0  0  0  0  0
   25.8999  -13.7087    0.4532 H   0  0  0  1  0  0  0  0  0  0  0  0
  1  2  1  0  0  0  0
  1  5  1  0  0  0  0
  1  8  2  0  0  0  0
  2  3  1  0  0  0  0
  2  4  1  0  0  0  0
  2  9  1  0  0  0  0
  5  6  1  0  0  0  0
  5  7  1  0  0  0  0
  5 11  1  0  0  0  0
  9 10  1  0  0  0  0
 11 12  1  0  0  0  0
M  END
> <ConfClashScore>
0 

> <ConfOneFourInteractionScore>
-0.987707 

> <ConfScore>
0.537316 

> <ConfScorePBest>
0.0264432 

> <ConfTolerance>
0.25 

$$$$
L11.****
  PyMOL2.4          3D                             0

 12 11  0  0  0  0  0  0  0  0999 V2000
   23.7394  -11.5364   -0.1262 C   0  0  0  1  0  0  0  0  0  0  0  0
   22.3783  -12.1680   -0.0714 C   0  0  0  1  0  0  0  0  0  0  0  0
   22.1912  -12.5651    0.9045 H   0  0  0  1  0  0  0  0  0  0  0  0
   22.3019  -12.9512   -0.7964 H   0  0  0  1  0  0  0  0  0  0  0  0
   23.9848  -10.3621    0.7794 C   0  0  0  1  0  0  0  0  0  0  0  0
   24.7597  -10.5985    1.4784 H   0  0  0  1  0  0  0  0  0  0  0  0
   23.0877  -10.1189    1.3095 H   0  0  0  1  0  0  0  0  0  0  0  0
   24.6009  -11.9525   -0.8654 O   0  0  0  1  0  0  0  0  0  0  0  0
   21.4439  -11.1152   -0.3712 O   0  0  0  1  0  0  0  0  0  0  0  0
   21.2103  -10.6541    0.4377 H   0  0  0  1  0  0  0  0  0  0  0  0
   24.3835   -9.2572   -0.0293 O   0  0  0  1  0  0  0  0  0  0  0  0
   25.3397   -9.1741   -0.0095 H   0  0  0  1  0  0  0  0  0  0  0  0
  1  2  1  0  0  0  0
  1  5  1  0  0  0  0
  1  8  2  0  0  0  0
  2  3  1  0  0  0  0
  2  4  1  0  0  0  0
  2  9  1  0  0  0  0
  5  6  1  0  0  0  0
  5  7  1  0  0  0  0
  5 11  1  0  0  0  0
  9 10  1  0  0  0  0
 11 12  1  0  0  0  0
M  END
> <ConfClashScore>
0 

> <ConfOneFourInteractionScore>
-0.986237 

> <ConfScore>
0.541555 

> <ConfScorePBest>
0.0255245 

> <ConfTolerance>
0.25 

$$$$
L11.****
  PyMOL2.4          3D                             0

 12 11  0  0  0  0  0  0  0  0999 V2000
   23.8015  -11.6179   -0.1143 C   0  0  0  1  0  0  0  0  0  0  0  0
   22.3921  -12.1324   -0.0763 C   0  0  0  1  0  0  0  0  0  0  0  0
   22.1817  -12.5157    0.9003 H   0  0  0  1  0  0  0  0  0  0  0  0
   22.2813  -12.9141   -0.7984 H   0  0  0  1  0  0  0  0  0  0  0  0
   24.4438  -11.2652    1.1971 C   0  0  0  1  0  0  0  0  0  0  0  0
   25.4936  -11.1330    1.0378 H   0  0  0  1  0  0  0  0  0  0  0  0
   24.2853  -12.0717    1.8822 H   0  0  0  1  0  0  0  0  0  0  0  0
   24.3706  -11.5032   -1.1748 O   0  0  0  1  0  0  0  0  0  0  0  0
   21.4819  -11.0842   -0.3754 O   0  0  0  1  0  0  0  0  0  0  0  0
   21.1265  -10.7256    0.4411 H   0  0  0  1  0  0  0  0  0  0  0  0
   23.9197  -10.0758    1.7693 O   0  0  0  1  0  0  0  0  0  0  0  0
   24.1780  -10.0235    2.6924 H   0  0  0  1  0  0  0  0  0  0  0  0
  1  2  1  0  0  0  0
  1  5  1  0  0  0  0
  1  8  2  0  0  0  0
  2  3  1  0  0  0  0
  2  4  1  0  0  0  0
  2  9  1  0  0  0  0
  5  6  1  0  0  0  0
  5  7  1  0  0  0  0
  5 11  1  0  0  0  0
  9 10  1  0  0  0  0
 11 12  1  0  0  0  0
M  END
> <ConfClashScore>
0 

> <ConfOneFourInteractionScore>
-0.986237 

> <ConfScore>
0.557176 

> <ConfScorePBest>
0.0246058 

> <ConfTolerance>
0.25 

$$$$
L11.****
  PyMOL2.4          3D                             0

 12 11  0  0  0  0  0  0  0  0999 V2000
   23.7862  -11.5942   -0.1180 C   0  0  0  1  0  0  0  0  0  0  0  0
   22.3859  -12.1395   -0.0762 C   0  0  0  1  0  0  0  0  0  0  0  0
   22.1860  -12.5266    0.9011 H   0  0  0  1  0  0  0  0  0  0  0  0
   22.2900  -12.9240   -0.7975 H   0  0  0  1  0  0  0  0  0  0  0  0
   24.2142  -10.9068   -1.3844 C   0  0  0  1  0  0  0  0  0  0  0  0
   24.9940  -10.2130   -1.1488 H   0  0  0  1  0  0  0  0  0  0  0  0
   23.3750  -10.3780   -1.7857 H   0  0  0  1  0  0  0  0  0  0  0  0
   24.5360  -11.7027    0.8241 O   0  0  0  1  0  0  0  0  0  0  0  0
   21.4526  -11.1113   -0.3738 O   0  0  0  1  0  0  0  0  0  0  0  0
   21.1643  -10.6944    0.4414 H   0  0  0  1  0  0  0  0  0  0  0  0
   24.6944  -11.8099   -2.3712 O   0  0  0  1  0  0  0  0  0  0  0  0
   25.2572  -12.4679   -1.9567 H   0  0  0  1  0  0  0  0  0  0  0  0
  1  2  1  0  0  0  0
  1  5  1  0  0  0  0
  1  8  2  0  0  0  0
  2  3  1  0  0  0  0
  2  4  1  0  0  0  0
  2  9  1  0  0  0  0
  5  6  1  0  0  0  0
  5  7  1  0  0  0  0
  5 11  1  0  0  0  0
  9 10  1  0  0  0  0
 11 12  1  0  0  0  0
M  END
> <ConfClashScore>
0 

> <ConfOneFourInteractionScore>
-0.986237 

> <ConfScore>
0.571387 

> <ConfScorePBest>
0.0236871 

> <ConfTolerance>
0.25 

$$$$
L11.****
  PyMOL2.4          3D                             0

 12 11  0  0  0  0  0  0  0  0999 V2000
   23.9029  -11.7748   -0.0370 C   0  0  0  1  0  0  0  0  0  0  0  0
   22.4326  -12.0883   -0.0353 C   0  0  0  1  0  0  0  0  0  0  0  0
   22.1625  -12.5564    0.8882 H   0  0  0  1  0  0  0  0  0  0  0  0
   22.2002  -12.7431   -0.8490 H   0  0  0  1  0  0  0  0  0  0  0  0
   24.4390  -11.0049    1.1377 C   0  0  0  1  0  0  0  0  0  0  0  0
   23.6324  -10.5020    1.6290 H   0  0  0  1  0  0  0  0  0  0  0  0
   25.1519  -10.2851    0.7935 H   0  0  0  1  0  0  0  0  0  0  0  0
   24.6237  -12.1253   -0.9422 O   0  0  0  1  0  0  0  0  0  0  0  0
   21.7230  -10.8670   -0.1819 O   0  0  0  1  0  0  0  0  0  0  0  0
   20.8437  -10.9604    0.1920 H   0  0  0  1  0  0  0  0  0  0  0  0
   25.0688  -11.8886    2.0538 O   0  0  0  1  0  0  0  0  0  0  0  0
   24.6426  -11.8185    2.9112 H   0  0  0  1  0  0  0  0  0  0  0  0
  1  2  1  0  0  0  0
  1  5  1  0  0  0  0
  1  8  2  0  0  0  0
  2  3  1  0  0  0  0
  2  4  1  0  0  0  0
  2  9  1  0  0  0  0
  5  6  1  0  0  0  0
  5  7  1  0  0  0  0
  5 11  1  0  0  0  0
  9 10  1  0  0  0  0
 11 12  1  0  0  0  0
M  END
> <ConfClashScore>
0 

> <ConfOneFourInteractionScore>
-0.986237 

> <ConfScore>
0.575905 

> <ConfScorePBest>
0.0227684 

> <ConfTolerance>
0.25 

$$$$
L11.****
  PyMOL2.4          3D                             0

 12 11  0  0  0  0  0  0  0  0999 V2000
   23.7457  -11.5449   -0.1238 C   0  0  0  1  0  0  0  0  0  0  0  0
   22.3755  -12.1569   -0.0733 C   0  0  0  1  0  0  0  0  0  0  0  0
   22.1910  -12.5537    0.9031 H   0  0  0  1  0  0  0  0  0  0  0  0
   22.3015  -12.9412   -0.7974 H   0  0  0  1  0  0  0  0  0  0  0  0
   24.7562  -11.8416    0.9487 C   0  0  0  1  0  0  0  0  0  0  0  0
   25.6662  -12.1563    0.4820 H   0  0  0  1  0  0  0  0  0  0  0  0
   24.3785  -12.6314    1.5638 H   0  0  0  1  0  0  0  0  0  0  0  0
   24.0442  -10.8061   -1.0330 O   0  0  0  1  0  0  0  0  0  0  0  0
   21.4291  -11.1396   -0.3666 O   0  0  0  1  0  0  0  0  0  0  0  0
   21.2222  -10.6536    0.4350 H   0  0  0  1  0  0  0  0  0  0  0  0
   25.0352  -10.7198    1.7735 O   0  0  0  1  0  0  0  0  0  0  0  0
   25.6335  -10.9806    2.4776 H   0  0  0  1  0  0  0  0  0  0  0  0
  1  2  1  0  0  0  0
  1  5  1  0  0  0  0
  1  8  2  0  0  0  0
  2  3  1  0  0  0  0
  2  4  1  0  0  0  0
  2  9  1  0  0  0  0
  5  6  1  0  0  0  0
  5  7  1  0  0  0  0
  5 11  1  0  0  0  0
  9 10  1  0  0  0  0
 11 12  1  0  0  0  0
M  END
> <ConfClashScore>
0 

> <ConfOneFourInteractionScore>
-0.987707 

> <ConfScore>
0.576946 

> <ConfScorePBest>
0.0218498 

> <ConfTolerance>
0.25 

$$$$
L11.****
  PyMOL2.4          3D                             0

 12 11  0  0  0  0  0  0  0  0999 V2000
   23.9224  -11.8202    0.0230 C   0  0  0  1  0  0  0  0  0  0  0  0
   22.4429  -12.0716    0.0111 C   0  0  0  1  0  0  0  0  0  0  0  0
   22.1775  -12.6618    0.8632 H   0  0  0  1  0  0  0  0  0  0  0  0
   22.1806  -12.5973   -0.8832 H   0  0  0  1  0  0  0  0  0  0  0  0
   24.7194  -12.3284   -1.1457 C   0  0  0  1  0  0  0  0  0  0  0  0
   25.3013  -13.1663   -0.8229 H   0  0  0  1  0  0  0  0  0  0  0  0
   25.3712  -11.5480   -1.4790 H   0  0  0  1  0  0  0  0  0  0  0  0
   24.4238  -11.2290    0.9508 O   0  0  0  1  0  0  0  0  0  0  0  0
   21.7382  -10.8395    0.0553 O   0  0  0  1  0  0  0  0  0  0  0  0
   20.8033  -10.9996   -0.0924 H   0  0  0  1  0  0  0  0  0  0  0  0
   23.9029  -12.7372   -2.2411 O   0  0  0  1  0  0  0  0  0  0  0  0
   23.1019  -12.2084   -2.2587 H   0  0  0  1  0  0  0  0  0  0  0  0
  1  2  1  0  0  0  0
  1  5  1  0  0  0  0
  1  8  2  0  0  0  0
  2  3  1  0  0  0  0
  2  4  1  0  0  0  0
  2  9  1  0  0  0  0
  5  6  1  0  0  0  0
  5  7  1  0  0  0  0
  5 11  1  0  0  0  0
  9 10  1  0  0  0  0
 11 12  1  0  0  0  0
M  END
> <ConfClashScore>
0 

> <ConfOneFourInteractionScore>
-0.974226 

> <ConfScore>
0.582026 

> <ConfScorePBest>
0.0209311 

> <ConfTolerance>
0.25 

$$$$
L11.****
  PyMOL2.4          3D                             0

 12 11  0  0  0  0  0  0  0  0999 V2000
   23.6986  -11.4949    0.0974 C   0  0  0  1  0  0  0  0  0  0  0  0
   22.3579  -12.1680    0.0543 C   0  0  0  1  0  0  0  0  0  0  0  0
   22.3244  -12.9107    0.8239 H   0  0  0  1  0  0  0  0  0  0  0  0
   22.2427  -12.6375   -0.9003 H   0  0  0  1  0  0  0  0  0  0  0  0
   24.3568  -11.2004   -1.2188 C   0  0  0  1  0  0  0  0  0  0  0  0
   24.9281  -10.3022   -1.1105 H   0  0  0  1  0  0  0  0  0  0  0  0
   23.5882  -11.0492   -1.9477 H   0  0  0  1  0  0  0  0  0  0  0  0
   24.2263  -11.2022    1.1450 O   0  0  0  1  0  0  0  0  0  0  0  0
   21.2735  -11.2626    0.2491 O   0  0  0  1  0  0  0  0  0  0  0  0
   21.3679  -10.5164   -0.3474 H   0  0  0  1  0  0  0  0  0  0  0  0
   25.2172  -12.2112   -1.6940 O   0  0  0  1  0  0  0  0  0  0  0  0
   24.8479  -12.5976   -2.4915 H   0  0  0  1  0  0  0  0  0  0  0  0
  1  2  1  0  0  0  0
  1  5  1  0  0  0  0
  1  8  2  0  0  0  0
  2  3  1  0  0  0  0
  2  4  1  0  0  0  0
  2  9  1  0  0  0  0
  5  6  1  0  0  0  0
  5  7  1  0  0  0  0
  5 11  1  0  0  0  0
  9 10  1  0  0  0  0
 11 12  1  0  0  0  0
M  END
> <ConfClashScore>
0 

> <ConfOneFourInteractionScore>
-0.987707 

> <ConfScore>
0.708401 

> <ConfScorePBest>
0.0200124 

> <ConfTolerance>
0.25 

$$$$
