L11.****
  PyMOL2.4          3D                             0

 12 11  0  0  0  0  0  0  0  0999 V2000
   23.1860  -11.5310    0.0000 C   0  0  0  0  0  0  0  0  0  0  0  0
   22.3180  -12.0300    0.0000 C   0  0  0  0  0  0  0  0  0  0  0  0
   22.3150  -12.6590    0.8900 H   0  0  0  0  0  0  0  0  0  0  0  0
   22.3150  -12.6590   -0.8900 H   0  0  0  0  0  0  0  0  0  0  0  0
   24.0490  -12.0340    0.0000 C   0  0  0  0  0  0  0  0  0  0  0  0
   24.0470  -12.6630   -0.8900 H   0  0  0  0  0  0  0  0  0  0  0  0
   24.0470  -12.6630    0.8900 H   0  0  0  0  0  0  0  0  0  0  0  0
   23.1900  -10.5300    0.0000 O   0  0  0  0  0  0  0  0  0  0  0  0
   21.4580  -11.5230    0.0000 O   0  0  0  0  0  0  0  0  0  0  0  0
   21.6730  -10.5880   -0.0230 H   0  0  0  0  0  0  0  0  0  0  0  0
   24.9170  -11.5350    0.0000 O   0  0  0  0  0  0  0  0  0  0  0  0
   24.7130  -10.5970    0.0230 H   0  0  0  0  0  0  0  0  0  0  0  0
  1  2  1  0  0  0  0
  1  5  1  0  0  0  0
  1  8  2  0  0  0  0
  2  3  1  0  0  0  0
  2  4  1  0  0  0  0
  2  9  1  0  0  0  0
  5  6  1  0  0  0  0
  5  7  1  0  0  0  0
  5 11  1  0  0  0  0
  9 10  1  0  0  0  0
 11 12  1  0  0  0  0
M  END
$$$$
