# created with PyMOL 2.4.0
@<TRIPOS>MOLECULE
L11.****
12 11 1                 
SMALL
USER_CHARGES
@<TRIPOS>ATOM
1	   C	23.186	-11.531	0.000	C.2	1	UNK0	0.000	
2	   C	22.318	-12.030	0.000	C.3	1	UNK0	0.000	
3	   H	22.315	-12.659	0.890	 H	1	UNK0	0.000	
4	   H	22.315	-12.659	-0.890	 H	1	UNK0	0.000	
5	   C	24.049	-12.034	0.000	C.3	1	UNK0	0.000	
6	   H	24.047	-12.663	-0.890	 H	1	UNK0	0.000	
7	   H	24.047	-12.663	0.890	 H	1	UNK0	0.000	
8	   O	23.190	-10.530	0.000	O.2	1	UNK0	0.000	
9	   O	21.458	-11.523	0.000	O.3	1	UNK0	0.000	
10	   H	21.673	-10.588	-0.023	 H	1	UNK0	0.000	
11	   O	24.917	-11.535	0.000	O.3	1	UNK0	0.000	
12	   H	24.713	-10.597	0.023	 H	1	UNK0	0.000	
@<TRIPOS>BOND
1 1 2 1
2 1 5 1
3 1 8 2
4 2 3 1
5 2 4 1
6 2 9 1
7 5 6 1
8 5 7 1
9 5 11 1
10 9 10 1
11 11 12 1
@<TRIPOS>SUBSTRUCTURE
1	UNK0	1	GROUP	1 ****	UNK
