# created with PyMOL 2.5.2
@<TRIPOS>MOLECULE
L12
12 12 1                 
SMALL
USER_CHARGES
@<TRIPOS>ATOM
1	   C	0.000	-0.825	0.000	C.3	1	UNK0	0.000	
2	   O	0.000	-1.650	0.000	O.3	1	UNK0	0.000	
3	   C	-0.715	-0.412	0.000	C.3	1	UNK0	0.000	
4	   O	-1.429	-0.825	0.000	O.3	1	UNK0	0.000	
5	   C	-0.715	0.412	0.000	C.3	1	UNK0	0.000	
6	   C	0.715	0.412	0.000	C.3	1	UNK0	0.000	
7	   O	1.429	0.825	0.000	O.3	1	UNK0	0.000	
8	   O	1.429	-0.825	0.000	O.3	1	UNK0	0.000	
9	   O	0.000	0.825	0.000	O.3	1	UNK0	0.000	
10	   C	0.715	-0.412	0.000	C.3	1	UNK0	0.000	
11	   C	-1.429	0.825	0.000	C.3	1	UNK0	0.000	
12	   O	-2.143	0.412	0.000	O.3	1	UNK0	0.000	
@<TRIPOS>BOND
1 1 2 1
2 1 10 1
3 1 3 1
4 3 4 1
5 3 5 1
6 5 9 1
7 5 11 1
8 6 7 1
9 6 10 1
10 6 9 1
11 8 10 1
12 11 12 1
@<TRIPOS>SUBSTRUCTURE
1	UNK0	1	GROUP	1 ****	UNK
