# created with PyMOL 2.4.0
@<TRIPOS>MOLECULE
L12.****
24 24 1                 
SMALL
USER_CHARGES
@<TRIPOS>ATOM
1	   C	0.000	-0.825	0.000	C.3	1	UNK0	0.000	
2	   H	0.000	-0.825	1.090	 H	1	UNK0	0.000	
3	   O	0.000	-1.650	0.000	O.3	1	UNK0	0.000	
4	   H	0.793	-1.940	0.458	 H	1	UNK0	0.000	
5	   C	-0.715	-0.412	0.000	C.3	1	UNK0	0.000	
6	   H	-0.715	-0.412	1.090	 H	1	UNK0	0.000	
7	   O	-1.429	-0.825	0.000	O.3	1	UNK0	0.000	
8	   H	-1.283	-1.656	0.458	 H	1	UNK0	0.000	
9	   C	-0.715	0.412	0.000	C.3	1	UNK0	0.000	
10	   H	-0.715	0.412	-1.090	 H	1	UNK0	0.000	
11	   C	0.715	0.412	0.000	C.3	1	UNK0	0.000	
12	   H	0.715	0.412	-1.090	 H	1	UNK0	0.000	
13	   O	1.429	0.825	0.000	O.3	1	UNK0	0.000	
14	   H	1.680	0.970	0.915	 H	1	UNK0	0.000	
15	   O	1.429	-0.825	0.000	O.3	1	UNK0	0.000	
16	   H	2.077	-0.284	-0.458	 H	1	UNK0	0.000	
17	   O	0.000	0.825	0.000	O.3	1	UNK0	0.000	
18	   C	0.715	-0.412	0.000	C.3	1	UNK0	0.000	
19	   H	0.715	-0.412	1.090	 H	1	UNK0	0.000	
20	   C	-1.429	0.825	0.000	C.3	1	UNK0	0.000	
21	   H	-1.429	1.454	-0.890	 H	1	UNK0	0.000	
22	   H	-1.429	1.454	0.890	 H	1	UNK0	0.000	
23	   O	-2.143	0.412	0.000	O.3	1	UNK0	0.000	
24	   H	-1.936	-0.525	-0.000	 H	1	UNK0	0.000	
@<TRIPOS>BOND
1 1 2 1
2 1 3 1
3 1 5 1
4 1 18 1
5 3 4 1
6 5 6 1
7 5 7 1
8 5 9 1
9 7 8 1
10 9 10 1
11 9 17 1
12 9 20 1
13 11 12 1
14 11 13 1
15 11 17 1
16 11 18 1
17 13 14 1
18 15 16 1
19 15 18 1
20 18 19 1
21 20 21 1
22 20 22 1
23 20 23 1
24 23 24 1
@<TRIPOS>SUBSTRUCTURE
1	UNK0	1	GROUP	1 ****	UNK
