L12.****
  PyMOL2.4          3D                             0

 24 24  0  0  0  0  0  0  0  0999 V2000
    0.2257   -0.8705    0.2768 C   0  0  0  1  0  0  0  0  0  0  0  0
    0.3613   -1.8125   -0.2122 H   0  0  0  1  0  0  0  0  0  0  0  0
    0.2050   -1.2450    1.6549 O   0  0  0  1  0  0  0  0  0  0  0  0
   -0.0782   -0.4971    2.1861 H   0  0  0  1  0  0  0  0  0  0  0  0
   -0.5300   -0.5659    0.1426 C   0  0  0  1  0  0  0  0  0  0  0  0
   -1.1934   -0.8202    0.9428 H   0  0  0  1  0  0  0  0  0  0  0  0
   -1.1216   -1.2529   -0.9617 O   0  0  0  1  0  0  0  0  0  0  0  0
   -2.0363   -1.4605   -0.7572 H   0  0  0  1  0  0  0  0  0  0  0  0
   -0.6234    0.2219   -0.0800 C   0  0  0  1  0  0  0  0  0  0  0  0
   -1.2135    0.2674   -0.9714 H   0  0  0  1  0  0  0  0  0  0  0  0
    0.7945    0.4026   -0.0349 C   0  0  0  1  0  0  0  0  0  0  0  0
    1.4588    0.6580   -0.8338 H   0  0  0  1  0  0  0  0  0  0  0  0
    1.2998    1.1480    1.0205 O   0  0  0  1  0  0  0  0  0  0  0  0
    2.0718    1.6371    0.7266 H   0  0  0  1  0  0  0  0  0  0  0  0
    1.6066   -1.0053   -0.8731 O   0  0  0  1  0  0  0  0  0  0  0  0
    1.0932   -0.9515   -1.6825 H   0  0  0  1  0  0  0  0  0  0  0  0
    0.0388    0.7072   -0.1690 O   0  0  0  1  0  0  0  0  0  0  0  0
    0.8878   -0.3852    0.1877 C   0  0  0  1  0  0  0  0  0  0  0  0
    1.5636   -0.4856    1.0112 H   0  0  0  1  0  0  0  0  0  0  0  0
   -1.5435    0.9251    0.8896 C   0  0  0  1  0  0  0  0  0  0  0  0
   -1.0492    1.0362    1.8320 H   0  0  0  1  0  0  0  0  0  0  0  0
   -2.4335    0.3455    1.0193 H   0  0  0  1  0  0  0  0  0  0  0  0
   -1.8849    2.2078    0.3810 O   0  0  0  1  0  0  0  0  0  0  0  0
   -1.1559    2.5497   -0.1417 H   0  0  0  1  0  0  0  0  0  0  0  0
  1  2  1  0  0  0  0
  1  3  1  0  0  0  0
  1  5  1  0  0  0  0
  1 18  1  0  0  0  0
  3  4  1  0  0  0  0
  5  6  1  0  0  0  0
  5  7  1  0  0  0  0
  5  9  1  0  0  0  0
  7  8  1  0  0  0  0
  9 10  1  0  0  0  0
  9 17  1  0  0  0  0
  9 20  1  0  0  0  0
 11 12  1  0  0  0  0
 11 13  1  0  0  0  0
 11 17  1  0  0  0  0
 11 18  1  0  0  0  0
 13 14  1  0  0  0  0
 15 16  1  0  0  0  0
 15 18  1  0  0  0  0
 18 19  1  0  0  0  0
 20 21  1  0  0  0  0
 20 22  1  0  0  0  0
 20 23  1  0  0  0  0
 23 24  1  0  0  0  0
M  END
> <ConfClashScore>
0.0493711 

> <ConfOneFourInteractionScore>
-0.95019 

> <ConfScore>
5.56738 

> <ConfScorePBest>
0.0150985 

> <ConfTolerance>
0.25 

$$$$
L12.****
  PyMOL2.4          3D                             0

 24 24  0  0  0  0  0  0  0  0999 V2000
    0.1810   -0.7408    0.2539 C   0  0  0  1  0  0  0  0  0  0  0  0
    0.2278   -1.3512    1.1315 H   0  0  0  1  0  0  0  0  0  0  0  0
    0.4702   -1.6807   -0.7755 O   0  0  0  1  0  0  0  0  0  0  0  0
    0.1116   -2.5385   -0.5362 H   0  0  0  1  0  0  0  0  0  0  0  0
   -0.5869   -0.4655    0.1262 C   0  0  0  1  0  0  0  0  0  0  0  0
   -1.0314   -1.0445   -0.6562 H   0  0  0  1  0  0  0  0  0  0  0  0
   -1.3970   -0.8394    1.2233 O   0  0  0  1  0  0  0  0  0  0  0  0
   -2.1399   -1.3607    0.9101 H   0  0  0  1  0  0  0  0  0  0  0  0
   -0.7178    0.3329   -0.0302 C   0  0  0  1  0  0  0  0  0  0  0  0
   -1.4478    0.7081    0.6563 H   0  0  0  1  0  0  0  0  0  0  0  0
    0.6867    0.5825    0.0685 C   0  0  0  1  0  0  0  0  0  0  0  0
    1.2119    1.2056    0.7619 H   0  0  0  1  0  0  0  0  0  0  0  0
    1.4327    0.7491   -1.1080 O   0  0  0  1  0  0  0  0  0  0  0  0
    1.8672    1.6051   -1.0934 H   0  0  0  1  0  0  0  0  0  0  0  0
    1.4124   -0.2104    1.5183 O   0  0  0  1  0  0  0  0  0  0  0  0
    2.1007   -0.8784    1.5573 H   0  0  0  1  0  0  0  0  0  0  0  0
   -0.0812    0.8579   -0.0592 O   0  0  0  1  0  0  0  0  0  0  0  0
    0.8177   -0.2158    0.2248 C   0  0  0  1  0  0  0  0  0  0  0  0
    1.6085   -0.6033   -0.3829 H   0  0  0  1  0  0  0  0  0  0  0  0
   -1.4594    0.5028   -1.3275 C   0  0  0  1  0  0  0  0  0  0  0  0
   -1.7804    1.5203   -1.4088 H   0  0  0  1  0  0  0  0  0  0  0  0
   -2.3134   -0.1418   -1.3218 H   0  0  0  1  0  0  0  0  0  0  0  0
   -0.6566    0.1862   -2.4571 O   0  0  0  1  0  0  0  0  0  0  0  0
   -0.6636   -0.7632   -2.5993 H   0  0  0  1  0  0  0  0  0  0  0  0
  1  2  1  0  0  0  0
  1  3  1  0  0  0  0
  1  5  1  0  0  0  0
  1 18  1  0  0  0  0
  3  4  1  0  0  0  0
  5  6  1  0  0  0  0
  5  7  1  0  0  0  0
  5  9  1  0  0  0  0
  7  8  1  0  0  0  0
  9 10  1  0  0  0  0
  9 17  1  0  0  0  0
  9 20  1  0  0  0  0
 11 12  1  0  0  0  0
 11 13  1  0  0  0  0
 11 17  1  0  0  0  0
 11 18  1  0  0  0  0
 13 14  1  0  0  0  0
 15 16  1  0  0  0  0
 15 18  1  0  0  0  0
 18 19  1  0  0  0  0
 20 21  1  0  0  0  0
 20 22  1  0  0  0  0
 20 23  1  0  0  0  0
 23 24  1  0  0  0  0
M  END
> <ConfClashScore>
0.0493711 

> <ConfOneFourInteractionScore>
-0.978871 

> <ConfScore>
5.56787 

> <ConfScorePBest>
0.0149955 

> <ConfTolerance>
0.25 

$$$$
L12.****
  PyMOL2.4          3D                             0

 24 24  0  0  0  0  0  0  0  0999 V2000
    0.2790   -0.7768    0.0820 C   0  0  0  1  0  0  0  0  0  0  0  0
    0.4522   -1.6826   -0.4606 H   0  0  0  1  0  0  0  0  0  0  0  0
    0.3493   -1.2130    1.4353 O   0  0  0  1  0  0  0  0  0  0  0  0
    0.0913   -2.1361    1.4882 H   0  0  0  1  0  0  0  0  0  0  0  0
   -0.4829   -0.4851   -0.0456 C   0  0  0  1  0  0  0  0  0  0  0  0
   -1.0386   -1.1111   -0.7121 H   0  0  0  1  0  0  0  0  0  0  0  0
   -1.2008   -0.6329    1.1808 O   0  0  0  1  0  0  0  0  0  0  0  0
   -2.0058   -1.1315    1.0228 H   0  0  0  1  0  0  0  0  0  0  0  0
   -0.5957    0.3138   -0.2130 C   0  0  0  1  0  0  0  0  0  0  0  0
   -1.3104    0.7158    0.4744 H   0  0  0  1  0  0  0  0  0  0  0  0
    0.8150    0.5313   -0.1257 C   0  0  0  1  0  0  0  0  0  0  0  0
    1.4978    0.8766   -0.8737 H   0  0  0  1  0  0  0  0  0  0  0  0
    1.3026    1.1468    1.0369 O   0  0  0  1  0  0  0  0  0  0  0  0
    0.7311    0.9310    1.7775 H   0  0  0  1  0  0  0  0  0  0  0  0
    1.7585   -0.8438   -0.9607 O   0  0  0  1  0  0  0  0  0  0  0  0
    1.4320   -0.5960   -1.8288 H   0  0  0  1  0  0  0  0  0  0  0  0
    0.0531    0.8230   -0.2533 O   0  0  0  1  0  0  0  0  0  0  0  0
    0.9278   -0.2676    0.0417 C   0  0  0  1  0  0  0  0  0  0  0  0
    1.5374   -0.3789    0.9139 H   0  0  0  1  0  0  0  0  0  0  0  0
   -1.3260    0.5320   -1.5170 C   0  0  0  1  0  0  0  0  0  0  0  0
   -1.5912    1.5658   -1.5931 H   0  0  0  1  0  0  0  0  0  0  0  0
   -2.2136   -0.0655   -1.5175 H   0  0  0  1  0  0  0  0  0  0  0  0
   -0.5363    0.1782   -2.6484 O   0  0  0  1  0  0  0  0  0  0  0  0
   -0.9473    0.5205   -3.4457 H   0  0  0  1  0  0  0  0  0  0  0  0
  1  2  1  0  0  0  0
  1  3  1  0  0  0  0
  1  5  1  0  0  0  0
  1 18  1  0  0  0  0
  3  4  1  0  0  0  0
  5  6  1  0  0  0  0
  5  7  1  0  0  0  0
  5  9  1  0  0  0  0
  7  8  1  0  0  0  0
  9 10  1  0  0  0  0
  9 17  1  0  0  0  0
  9 20  1  0  0  0  0
 11 12  1  0  0  0  0
 11 13  1  0  0  0  0
 11 17  1  0  0  0  0
 11 18  1  0  0  0  0
 13 14  1  0  0  0  0
 15 16  1  0  0  0  0
 15 18  1  0  0  0  0
 18 19  1  0  0  0  0
 20 21  1  0  0  0  0
 20 22  1  0  0  0  0
 20 23  1  0  0  0  0
 23 24  1  0  0  0  0
M  END
> <ConfClashScore>
0.0493711 

> <ConfOneFourInteractionScore>
-0.951485 

> <ConfScore>
5.57713 

> <ConfScorePBest>
0.0148925 

> <ConfTolerance>
0.25 

$$$$
L12.****
  PyMOL2.4          3D                             0

 24 24  0  0  0  0  0  0  0  0999 V2000
    0.0558   -0.7475    0.3760 C   0  0  0  1  0  0  0  0  0  0  0  0
    0.0537   -1.6911   -0.1286 H   0  0  0  1  0  0  0  0  0  0  0  0
    0.2282   -1.1697    1.7246 O   0  0  0  1  0  0  0  0  0  0  0  0
    0.4551   -2.1024    1.7419 H   0  0  0  1  0  0  0  0  0  0  0  0
   -0.6938   -0.4087    0.3054 C   0  0  0  1  0  0  0  0  0  0  0  0
   -1.2517   -0.5202    1.2116 H   0  0  0  1  0  0  0  0  0  0  0  0
   -1.3549   -1.3297   -0.5641 O   0  0  0  1  0  0  0  0  0  0  0  0
   -1.0709   -1.1770   -1.4684 H   0  0  0  1  0  0  0  0  0  0  0  0
   -0.7751    0.3522   -0.0002 C   0  0  0  1  0  0  0  0  0  0  0  0
   -1.4804    0.3340   -0.8046 H   0  0  0  1  0  0  0  0  0  0  0  0
    0.6427    0.4373   -0.1654 C   0  0  0  1  0  0  0  0  0  0  0  0
    1.2290    0.5779   -1.0494 H   0  0  0  1  0  0  0  0  0  0  0  0
    1.2821    1.2543    0.7613 O   0  0  0  1  0  0  0  0  0  0  0  0
    1.8292    1.8945    0.3004 H   0  0  0  1  0  0  0  0  0  0  0  0
    1.3337   -1.0509   -0.9210 O   0  0  0  1  0  0  0  0  0  0  0  0
    2.1974   -1.3627   -0.6410 H   0  0  0  1  0  0  0  0  0  0  0  0
   -0.1069    0.7761   -0.2360 O   0  0  0  1  0  0  0  0  0  0  0  0
    0.7240   -0.3236    0.1402 C   0  0  0  1  0  0  0  0  0  0  0  0
    1.4823   -0.3545    0.8945 H   0  0  0  1  0  0  0  0  0  0  0  0
   -1.5124    1.2269    0.9861 C   0  0  0  1  0  0  0  0  0  0  0  0
   -2.4809    0.8128    1.1740 H   0  0  0  1  0  0  0  0  0  0  0  0
   -1.6175    2.2110    0.5794 H   0  0  0  1  0  0  0  0  0  0  0  0
   -0.7815    1.2947    2.2068 O   0  0  0  1  0  0  0  0  0  0  0  0
   -1.1745    0.6991    2.8491 H   0  0  0  1  0  0  0  0  0  0  0  0
  1  2  1  0  0  0  0
  1  3  1  0  0  0  0
  1  5  1  0  0  0  0
  1 18  1  0  0  0  0
  3  4  1  0  0  0  0
  5  6  1  0  0  0  0
  5  7  1  0  0  0  0
  5  9  1  0  0  0  0
  7  8  1  0  0  0  0
  9 10  1  0  0  0  0
  9 17  1  0  0  0  0
  9 20  1  0  0  0  0
 11 12  1  0  0  0  0
 11 13  1  0  0  0  0
 11 17  1  0  0  0  0
 11 18  1  0  0  0  0
 13 14  1  0  0  0  0
 15 16  1  0  0  0  0
 15 18  1  0  0  0  0
 18 19  1  0  0  0  0
 20 21  1  0  0  0  0
 20 22  1  0  0  0  0
 20 23  1  0  0  0  0
 23 24  1  0  0  0  0
M  END
> <ConfClashScore>
0.0493711 

> <ConfOneFourInteractionScore>
-0.969113 

> <ConfScore>
5.58059 

> <ConfScorePBest>
0.0147895 

> <ConfTolerance>
0.25 

$$$$
L12.****
  PyMOL2.4          3D                             0

 24 24  0  0  0  0  0  0  0  0999 V2000
    0.1249   -0.7069    0.2145 C   0  0  0  1  0  0  0  0  0  0  0  0
    0.1099   -1.5293   -0.4698 H   0  0  0  1  0  0  0  0  0  0  0  0
    0.2804   -1.3763    1.4624 O   0  0  0  1  0  0  0  0  0  0  0  0
    0.5865   -2.2732    1.3090 H   0  0  0  1  0  0  0  0  0  0  0  0
   -0.6174   -0.3465    0.2444 C   0  0  0  1  0  0  0  0  0  0  0  0
   -1.1782   -0.6891    1.0887 H   0  0  0  1  0  0  0  0  0  0  0  0
   -1.3782   -0.8652   -0.8481 O   0  0  0  1  0  0  0  0  0  0  0  0
   -1.7471   -1.7177   -0.6054 H   0  0  0  1  0  0  0  0  0  0  0  0
   -0.6830    0.4701    0.1556 C   0  0  0  1  0  0  0  0  0  0  0  0
   -1.3756    0.6735   -0.6342 H   0  0  0  1  0  0  0  0  0  0  0  0
    0.7359    0.5679    0.0069 C   0  0  0  1  0  0  0  0  0  0  0  0
    1.4245    1.0728    0.6517 H   0  0  0  1  0  0  0  0  0  0  0  0
    1.2840    0.8235   -1.2591 O   0  0  0  1  0  0  0  0  0  0  0  0
    0.8031    0.3242   -1.9232 H   0  0  0  1  0  0  0  0  0  0  0  0
    1.6128   -0.3951    1.2562 O   0  0  0  1  0  0  0  0  0  0  0  0
    2.5311   -0.4954    0.9948 H   0  0  0  1  0  0  0  0  0  0  0  0
   -0.0064    0.9283    0.0367 O   0  0  0  1  0  0  0  0  0  0  0  0
    0.8015   -0.2487    0.0956 C   0  0  0  1  0  0  0  0  0  0  0  0
    1.4232   -0.6708   -0.6661 H   0  0  0  1  0  0  0  0  0  0  0  0
   -1.4649    1.0689    1.3522 C   0  0  0  1  0  0  0  0  0  0  0  0
   -0.8505    1.0660    2.2282 H   0  0  0  1  0  0  0  0  0  0  0  0
   -2.3495    0.4951    1.5344 H   0  0  0  1  0  0  0  0  0  0  0  0
   -1.8143    2.4034    1.0090 O   0  0  0  1  0  0  0  0  0  0  0  0
   -1.0187    2.9010    0.8065 H   0  0  0  1  0  0  0  0  0  0  0  0
  1  2  1  0  0  0  0
  1  3  1  0  0  0  0
  1  5  1  0  0  0  0
  1 18  1  0  0  0  0
  3  4  1  0  0  0  0
  5  6  1  0  0  0  0
  5  7  1  0  0  0  0
  5  9  1  0  0  0  0
  7  8  1  0  0  0  0
  9 10  1  0  0  0  0
  9 17  1  0  0  0  0
  9 20  1  0  0  0  0
 11 12  1  0  0  0  0
 11 13  1  0  0  0  0
 11 17  1  0  0  0  0
 11 18  1  0  0  0  0
 13 14  1  0  0  0  0
 15 16  1  0  0  0  0
 15 18  1  0  0  0  0
 18 19  1  0  0  0  0
 20 21  1  0  0  0  0
 20 22  1  0  0  0  0
 20 23  1  0  0  0  0
 23 24  1  0  0  0  0
M  END
> <ConfClashScore>
0.0493711 

> <ConfOneFourInteractionScore>
-0.95019 

> <ConfScore>
5.58433 

> <ConfScorePBest>
0.0146865 

> <ConfTolerance>
0.25 

$$$$
L12.****
  PyMOL2.4          3D                             0

 24 24  0  0  0  0  0  0  0  0999 V2000
    0.1160   -0.6960    0.4855 C   0  0  0  1  0  0  0  0  0  0  0  0
    0.1657   -1.1449    1.4555 H   0  0  0  1  0  0  0  0  0  0  0  0
    0.1234   -1.8252   -0.3814 O   0  0  0  1  0  0  0  0  0  0  0  0
    0.1176   -2.6304    0.1412 H   0  0  0  1  0  0  0  0  0  0  0  0
   -0.6240   -0.3626    0.3338 C   0  0  0  1  0  0  0  0  0  0  0  0
   -1.2396   -0.4198    1.2071 H   0  0  0  1  0  0  0  0  0  0  0  0
   -1.3405   -1.2016   -0.5741 O   0  0  0  1  0  0  0  0  0  0  0  0
   -1.8547   -1.8437   -0.0792 H   0  0  0  1  0  0  0  0  0  0  0  0
   -0.6770    0.3878   -0.0025 C   0  0  0  1  0  0  0  0  0  0  0  0
   -1.2981    0.3367   -0.8723 H   0  0  0  1  0  0  0  0  0  0  0  0
    0.7501    0.4734   -0.0360 C   0  0  0  1  0  0  0  0  0  0  0  0
    1.3865    1.1676    0.4718 H   0  0  0  1  0  0  0  0  0  0  0  0
    1.3735    0.3573   -1.2820 O   0  0  0  1  0  0  0  0  0  0  0  0
    1.3471    1.2040   -1.7337 H   0  0  0  1  0  0  0  0  0  0  0  0
    1.5994   -0.1173    1.4694 O   0  0  0  1  0  0  0  0  0  0  0  0
    2.5262   -0.0759    1.2225 H   0  0  0  1  0  0  0  0  0  0  0  0
    0.0101    0.8067   -0.1878 O   0  0  0  1  0  0  0  0  0  0  0  0
    0.8030   -0.2771    0.3002 C   0  0  0  1  0  0  0  0  0  0  0  0
    1.4410   -0.8910   -0.3006 H   0  0  0  1  0  0  0  0  0  0  0  0
   -1.4587    1.3670    0.8255 C   0  0  0  1  0  0  0  0  0  0  0  0
   -2.4556    1.0071    0.9725 H   0  0  0  1  0  0  0  0  0  0  0  0
   -1.4908    2.3170    0.3342 H   0  0  0  1  0  0  0  0  0  0  0  0
   -0.7978    1.4905    2.0779 O   0  0  0  1  0  0  0  0  0  0  0  0
   -1.1829    0.8746    2.7056 H   0  0  0  1  0  0  0  0  0  0  0  0
  1  2  1  0  0  0  0
  1  3  1  0  0  0  0
  1  5  1  0  0  0  0
  1 18  1  0  0  0  0
  3  4  1  0  0  0  0
  5  6  1  0  0  0  0
  5  7  1  0  0  0  0
  5  9  1  0  0  0  0
  7  8  1  0  0  0  0
  9 10  1  0  0  0  0
  9 17  1  0  0  0  0
  9 20  1  0  0  0  0
 11 12  1  0  0  0  0
 11 13  1  0  0  0  0
 11 17  1  0  0  0  0
 11 18  1  0  0  0  0
 13 14  1  0  0  0  0
 15 16  1  0  0  0  0
 15 18  1  0  0  0  0
 18 19  1  0  0  0  0
 20 21  1  0  0  0  0
 20 22  1  0  0  0  0
 20 23  1  0  0  0  0
 23 24  1  0  0  0  0
M  END
> <ConfClashScore>
0.0493711 

> <ConfOneFourInteractionScore>
-0.971319 

> <ConfScore>
5.58778 

> <ConfScorePBest>
0.0145835 

> <ConfTolerance>
0.25 

$$$$
L12.****
  PyMOL2.4          3D                             0

 24 24  0  0  0  0  0  0  0  0999 V2000
    0.0964   -0.8315    0.2399 C   0  0  0  1  0  0  0  0  0  0  0  0
    0.0654   -1.4825    1.0885 H   0  0  0  1  0  0  0  0  0  0  0  0
    0.2517   -1.7515   -0.8352 O   0  0  0  1  0  0  0  0  0  0  0  0
    0.9660   -2.3608   -0.6349 H   0  0  0  1  0  0  0  0  0  0  0  0
   -0.6426   -0.4911    0.0991 C   0  0  0  1  0  0  0  0  0  0  0  0
   -1.1851   -1.0411   -0.6413 H   0  0  0  1  0  0  0  0  0  0  0  0
   -1.3798   -0.7851    1.2872 O   0  0  0  1  0  0  0  0  0  0  0  0
   -2.3189   -0.7930    1.0879 H   0  0  0  1  0  0  0  0  0  0  0  0
   -0.7050    0.3205   -0.0287 C   0  0  0  1  0  0  0  0  0  0  0  0
   -1.4254    0.7257    0.6508 H   0  0  0  1  0  0  0  0  0  0  0  0
    0.7105    0.4535    0.1250 C   0  0  0  1  0  0  0  0  0  0  0  0
    1.2513    1.0027    0.8671 H   0  0  0  1  0  0  0  0  0  0  0  0
    1.4955    0.6535   -1.0226 O   0  0  0  1  0  0  0  0  0  0  0  0
    1.4429    1.5739   -1.2904 H   0  0  0  1  0  0  0  0  0  0  0  0
    1.3927   -0.4611    1.5302 O   0  0  0  1  0  0  0  0  0  0  0  0
    2.3464   -0.4240    1.4275 H   0  0  0  1  0  0  0  0  0  0  0  0
   -0.0285    0.7938   -0.0159 O   0  0  0  1  0  0  0  0  0  0  0  0
    0.7728   -0.3582    0.2527 C   0  0  0  1  0  0  0  0  0  0  0  0
    1.5254   -0.7748   -0.3837 H   0  0  0  1  0  0  0  0  0  0  0  0
   -1.3646    0.6461   -1.3405 C   0  0  0  1  0  0  0  0  0  0  0  0
   -2.3432    0.2136   -1.3494 H   0  0  0  1  0  0  0  0  0  0  0  0
   -0.7808    0.2250   -2.1321 H   0  0  0  1  0  0  0  0  0  0  0  0
   -1.4828    2.0462   -1.5559 O   0  0  0  1  0  0  0  0  0  0  0  0
   -2.3699    2.3321   -1.3258 H   0  0  0  1  0  0  0  0  0  0  0  0
  1  2  1  0  0  0  0
  1  3  1  0  0  0  0
  1  5  1  0  0  0  0
  1 18  1  0  0  0  0
  3  4  1  0  0  0  0
  5  6  1  0  0  0  0
  5  7  1  0  0  0  0
  5  9  1  0  0  0  0
  7  8  1  0  0  0  0
  9 10  1  0  0  0  0
  9 17  1  0  0  0  0
  9 20  1  0  0  0  0
 11 12  1  0  0  0  0
 11 13  1  0  0  0  0
 11 17  1  0  0  0  0
 11 18  1  0  0  0  0
 13 14  1  0  0  0  0
 15 16  1  0  0  0  0
 15 18  1  0  0  0  0
 18 19  1  0  0  0  0
 20 21  1  0  0  0  0
 20 22  1  0  0  0  0
 20 23  1  0  0  0  0
 23 24  1  0  0  0  0
M  END
> <ConfClashScore>
0.0493711 

> <ConfOneFourInteractionScore>
-0.971319 

> <ConfScore>
5.6031 

> <ConfScorePBest>
0.0144805 

> <ConfTolerance>
0.25 

$$$$
L12.****
  PyMOL2.4          3D                             0

 24 24  0  0  0  0  0  0  0  0999 V2000
    0.0290   -0.8304    0.1226 C   0  0  0  1  0  0  0  0  0  0  0  0
    0.1520   -1.3692    1.0388 H   0  0  0  1  0  0  0  0  0  0  0  0
   -0.0161   -1.8763   -0.8422 O   0  0  0  1  0  0  0  0  0  0  0  0
    0.7016   -2.4930   -0.6801 H   0  0  0  1  0  0  0  0  0  0  0  0
   -0.7211   -0.4898    0.0679 C   0  0  0  1  0  0  0  0  0  0  0  0
   -1.3946   -1.1254   -0.4682 H   0  0  0  1  0  0  0  0  0  0  0  0
   -1.2277   -0.5772    1.4010 O   0  0  0  1  0  0  0  0  0  0  0  0
   -0.7028   -0.0200    1.9804 H   0  0  0  1  0  0  0  0  0  0  0  0
   -0.8010    0.2953   -0.1694 C   0  0  0  1  0  0  0  0  0  0  0  0
   -1.3809    0.8221    0.5594 H   0  0  0  1  0  0  0  0  0  0  0  0
    0.6192    0.4010   -0.2979 C   0  0  0  1  0  0  0  0  0  0  0  0
    1.2378    0.6393   -1.1378 H   0  0  0  1  0  0  0  0  0  0  0  0
    1.2020    1.1118    0.7340 O   0  0  0  1  0  0  0  0  0  0  0  0
    1.8246    1.7475    0.3737 H   0  0  0  1  0  0  0  0  0  0  0  0
    1.4480   -0.3859    1.1502 O   0  0  0  1  0  0  0  0  0  0  0  0
    2.0721   -1.1152    1.1398 H   0  0  0  1  0  0  0  0  0  0  0  0
   -0.1310    0.7416   -0.3526 O   0  0  0  1  0  0  0  0  0  0  0  0
    0.6991   -0.3841   -0.0606 C   0  0  0  1  0  0  0  0  0  0  0  0
    1.3465   -0.9204   -0.7225 H   0  0  0  1  0  0  0  0  0  0  0  0
   -1.6898    0.4433   -1.3736 C   0  0  0  1  0  0  0  0  0  0  0  0
   -2.5683   -0.1498   -1.2269 H   0  0  0  1  0  0  0  0  0  0  0  0
   -1.1616    0.0922   -2.2354 H   0  0  0  1  0  0  0  0  0  0  0  0
   -2.0817    1.7914   -1.5966 O   0  0  0  1  0  0  0  0  0  0  0  0
   -1.3113    2.3146   -1.8298 H   0  0  0  1  0  0  0  0  0  0  0  0
  1  2  1  0  0  0  0
  1  3  1  0  0  0  0
  1  5  1  0  0  0  0
  1 18  1  0  0  0  0
  3  4  1  0  0  0  0
  5  6  1  0  0  0  0
  5  7  1  0  0  0  0
  5  9  1  0  0  0  0
  7  8  1  0  0  0  0
  9 10  1  0  0  0  0
  9 17  1  0  0  0  0
  9 20  1  0  0  0  0
 11 12  1  0  0  0  0
 11 13  1  0  0  0  0
 11 17  1  0  0  0  0
 11 18  1  0  0  0  0
 13 14  1  0  0  0  0
 15 16  1  0  0  0  0
 15 18  1  0  0  0  0
 18 19  1  0  0  0  0
 20 21  1  0  0  0  0
 20 22  1  0  0  0  0
 20 23  1  0  0  0  0
 23 24  1  0  0  0  0
M  END
> <ConfClashScore>
0.0493711 

> <ConfOneFourInteractionScore>
-0.95019 

> <ConfScore>
5.61221 

> <ConfScorePBest>
0.0143775 

> <ConfTolerance>
0.25 

$$$$
L12.****
  PyMOL2.4          3D                             0

 24 24  0  0  0  0  0  0  0  0999 V2000
    0.1746   -0.6751    0.4573 C   0  0  0  1  0  0  0  0  0  0  0  0
    0.2470   -1.0349    1.4624 H   0  0  0  1  0  0  0  0  0  0  0  0
    0.1872   -1.8858   -0.2915 O   0  0  0  1  0  0  0  0  0  0  0  0
    0.7847   -2.5127    0.1228 H   0  0  0  1  0  0  0  0  0  0  0  0
   -0.5554   -0.3125    0.3252 C   0  0  0  1  0  0  0  0  0  0  0  0
   -1.1437   -0.3208    1.2189 H   0  0  0  1  0  0  0  0  0  0  0  0
   -1.3174   -1.1670   -0.5295 O   0  0  0  1  0  0  0  0  0  0  0  0
   -1.9703   -1.6409   -0.0092 H   0  0  0  1  0  0  0  0  0  0  0  0
   -0.5885    0.4280   -0.0348 C   0  0  0  1  0  0  0  0  0  0  0  0
   -1.2650    0.3933   -0.8631 H   0  0  0  1  0  0  0  0  0  0  0  0
    0.8381    0.4448   -0.1316 C   0  0  0  1  0  0  0  0  0  0  0  0
    1.5141    1.1245    0.3437 H   0  0  0  1  0  0  0  0  0  0  0  0
    1.4483    0.2516   -1.3746 O   0  0  0  1  0  0  0  0  0  0  0  0
    0.7760    0.2110   -2.0587 H   0  0  0  1  0  0  0  0  0  0  0  0
    1.6370   -0.2083    1.4254 O   0  0  0  1  0  0  0  0  0  0  0  0
    1.3323    0.5377    1.9471 H   0  0  0  1  0  0  0  0  0  0  0  0
    0.1082    0.8075   -0.2637 O   0  0  0  1  0  0  0  0  0  0  0  0
    0.8713   -0.2956    0.2285 C   0  0  0  1  0  0  0  0  0  0  0  0
    1.4714   -0.9595   -0.3580 H   0  0  0  1  0  0  0  0  0  0  0  0
   -1.2828    1.4297    0.8463 C   0  0  0  1  0  0  0  0  0  0  0  0
   -0.6512    1.6722    1.6753 H   0  0  0  1  0  0  0  0  0  0  0  0
   -2.1997    1.0117    1.2061 H   0  0  0  1  0  0  0  0  0  0  0  0
   -1.5608    2.6093    0.1033 O   0  0  0  1  0  0  0  0  0  0  0  0
   -2.4918    2.6292   -0.1298 H   0  0  0  1  0  0  0  0  0  0  0  0
  1  2  1  0  0  0  0
  1  3  1  0  0  0  0
  1  5  1  0  0  0  0
  1 18  1  0  0  0  0
  3  4  1  0  0  0  0
  5  6  1  0  0  0  0
  5  7  1  0  0  0  0
  5  9  1  0  0  0  0
  7  8  1  0  0  0  0
  9 10  1  0  0  0  0
  9 17  1  0  0  0  0
  9 20  1  0  0  0  0
 11 12  1  0  0  0  0
 11 13  1  0  0  0  0
 11 17  1  0  0  0  0
 11 18  1  0  0  0  0
 13 14  1  0  0  0  0
 15 16  1  0  0  0  0
 15 18  1  0  0  0  0
 18 19  1  0  0  0  0
 20 21  1  0  0  0  0
 20 22  1  0  0  0  0
 20 23  1  0  0  0  0
 23 24  1  0  0  0  0
M  END
> <ConfClashScore>
0.0498658 

> <ConfOneFourInteractionScore>
-0.95019 

> <ConfScore>
5.61669 

> <ConfScorePBest>
0.0142745 

> <ConfTolerance>
0.25 

$$$$
L12.****
  PyMOL2.4          3D                             0

 24 24  0  0  0  0  0  0  0  0999 V2000
    0.1561   -0.7187    0.3378 C   0  0  0  1  0  0  0  0  0  0  0  0
    0.1270   -1.1604    1.3119 H   0  0  0  1  0  0  0  0  0  0  0  0
    0.4206   -1.8407   -0.4976 O   0  0  0  1  0  0  0  0  0  0  0  0
   -0.1020   -2.5900   -0.2026 H   0  0  0  1  0  0  0  0  0  0  0  0
   -0.5928   -0.4723    0.0926 C   0  0  0  1  0  0  0  0  0  0  0  0
   -1.0912   -1.2283   -0.4774 H   0  0  0  1  0  0  0  0  0  0  0  0
   -1.3135   -0.4950    1.3261 O   0  0  0  1  0  0  0  0  0  0  0  0
   -1.9203   -1.2388    1.3290 H   0  0  0  1  0  0  0  0  0  0  0  0
   -0.6926    0.2755   -0.2388 C   0  0  0  1  0  0  0  0  0  0  0  0
   -1.4473    0.7924    0.3162 H   0  0  0  1  0  0  0  0  0  0  0  0
    0.7052    0.5323   -0.0806 C   0  0  0  1  0  0  0  0  0  0  0  0
    1.4479    0.7354   -0.8236 H   0  0  0  1  0  0  0  0  0  0  0  0
    1.0911    1.3732    0.9712 O   0  0  0  1  0  0  0  0  0  0  0  0
    1.5986    2.1098    0.6228 H   0  0  0  1  0  0  0  0  0  0  0  0
    1.6650   -0.8131   -0.7136 O   0  0  0  1  0  0  0  0  0  0  0  0
    2.3671   -1.2900   -0.2651 H   0  0  0  1  0  0  0  0  0  0  0  0
   -0.0438    0.7787   -0.3258 O   0  0  0  1  0  0  0  0  0  0  0  0
    0.8050   -0.2155    0.2508 C   0  0  0  1  0  0  0  0  0  0  0  0
    1.4176   -0.1911    1.1278 H   0  0  0  1  0  0  0  0  0  0  0  0
   -1.3307    0.2715   -1.5982 C   0  0  0  1  0  0  0  0  0  0  0  0
   -2.1419   -0.4262   -1.6082 H   0  0  0  1  0  0  0  0  0  0  0  0
   -0.6050   -0.0141   -2.3308 H   0  0  0  1  0  0  0  0  0  0  0  0
   -1.8212    1.5709   -1.9006 O   0  0  0  1  0  0  0  0  0  0  0  0
   -2.7409    1.5117   -2.1695 H   0  0  0  1  0  0  0  0  0  0  0  0
  1  2  1  0  0  0  0
  1  3  1  0  0  0  0
  1  5  1  0  0  0  0
  1 18  1  0  0  0  0
  3  4  1  0  0  0  0
  5  6  1  0  0  0  0
  5  7  1  0  0  0  0
  5  9  1  0  0  0  0
  7  8  1  0  0  0  0
  9 10  1  0  0  0  0
  9 17  1  0  0  0  0
  9 20  1  0  0  0  0
 11 12  1  0  0  0  0
 11 13  1  0  0  0  0
 11 17  1  0  0  0  0
 11 18  1  0  0  0  0
 13 14  1  0  0  0  0
 15 16  1  0  0  0  0
 15 18  1  0  0  0  0
 18 19  1  0  0  0  0
 20 21  1  0  0  0  0
 20 22  1  0  0  0  0
 20 23  1  0  0  0  0
 23 24  1  0  0  0  0
M  END
> <ConfClashScore>
0.0493711 

> <ConfOneFourInteractionScore>
-0.922804 

> <ConfScore>
5.62023 

> <ConfScorePBest>
0.0141715 

> <ConfTolerance>
0.25 

$$$$
L12.****
  PyMOL2.4          3D                             0

 24 24  0  0  0  0  0  0  0  0999 V2000
    0.0902   -0.8808    0.3273 C   0  0  0  1  0  0  0  0  0  0  0  0
    0.2288   -1.6774   -0.3736 H   0  0  0  1  0  0  0  0  0  0  0  0
    0.1166   -1.5835    1.5651 O   0  0  0  1  0  0  0  0  0  0  0  0
   -0.2801   -1.0406    2.2503 H   0  0  0  1  0  0  0  0  0  0  0  0
   -0.6541   -0.5384    0.2248 C   0  0  0  1  0  0  0  0  0  0  0  0
   -1.3553   -0.9208    0.9369 H   0  0  0  1  0  0  0  0  0  0  0  0
   -1.1784   -1.0384   -1.0066 O   0  0  0  1  0  0  0  0  0  0  0  0
   -0.6512   -0.7072   -1.7373 H   0  0  0  1  0  0  0  0  0  0  0  0
   -0.7246    0.2790    0.1477 C   0  0  0  1  0  0  0  0  0  0  0  0
   -1.2913    0.5078   -0.7306 H   0  0  0  1  0  0  0  0  0  0  0  0
    0.6933    0.4134    0.2754 C   0  0  0  1  0  0  0  0  0  0  0  0
    1.2322    0.9124    1.0534 H   0  0  0  1  0  0  0  0  0  0  0  0
    1.4647    0.7222   -0.8553 O   0  0  0  1  0  0  0  0  0  0  0  0
    1.1567    1.5471   -1.2378 H   0  0  0  1  0  0  0  0  0  0  0  0
    1.5126   -0.8369   -0.7783 O   0  0  0  1  0  0  0  0  0  0  0  0
    2.3877   -1.1134   -0.4964 H   0  0  0  1  0  0  0  0  0  0  0  0
   -0.0510    0.7558    0.1729 O   0  0  0  1  0  0  0  0  0  0  0  0
    0.7638   -0.4040    0.3525 C   0  0  0  1  0  0  0  0  0  0  0  0
    1.4049   -0.6701    1.1667 H   0  0  0  1  0  0  0  0  0  0  0  0
   -1.5984    0.8888    1.2059 C   0  0  0  1  0  0  0  0  0  0  0  0
   -1.1420    0.7553    2.1644 H   0  0  0  1  0  0  0  0  0  0  0  0
   -2.5553    0.4101    1.1962 H   0  0  0  1  0  0  0  0  0  0  0  0
   -1.7621    2.2774    0.9497 O   0  0  0  1  0  0  0  0  0  0  0  0
   -2.5950    2.4234    0.4952 H   0  0  0  1  0  0  0  0  0  0  0  0
  1  2  1  0  0  0  0
  1  3  1  0  0  0  0
  1  5  1  0  0  0  0
  1 18  1  0  0  0  0
  3  4  1  0  0  0  0
  5  6  1  0  0  0  0
  5  7  1  0  0  0  0
  5  9  1  0  0  0  0
  7  8  1  0  0  0  0
  9 10  1  0  0  0  0
  9 17  1  0  0  0  0
  9 20  1  0  0  0  0
 11 12  1  0  0  0  0
 11 13  1  0  0  0  0
 11 17  1  0  0  0  0
 11 18  1  0  0  0  0
 13 14  1  0  0  0  0
 15 16  1  0  0  0  0
 15 18  1  0  0  0  0
 18 19  1  0  0  0  0
 20 21  1  0  0  0  0
 20 22  1  0  0  0  0
 20 23  1  0  0  0  0
 23 24  1  0  0  0  0
M  END
> <ConfClashScore>
0.0500033 

> <ConfOneFourInteractionScore>
-0.971319 

> <ConfScore>
5.62982 

> <ConfScorePBest>
0.0140685 

> <ConfTolerance>
0.25 

$$$$
L12.****
  PyMOL2.4          3D                             0

 24 24  0  0  0  0  0  0  0  0999 V2000
    0.0766   -0.8193    0.1538 C   0  0  0  1  0  0  0  0  0  0  0  0
   -0.0299   -1.7126   -0.4256 H   0  0  0  1  0  0  0  0  0  0  0  0
    0.3651   -1.3590    1.4241 O   0  0  0  1  0  0  0  0  0  0  0  0
    0.9036   -2.1473    1.3227 H   0  0  0  1  0  0  0  0  0  0  0  0
   -0.6649   -0.4655    0.2360 C   0  0  0  1  0  0  0  0  0  0  0  0
   -1.0493   -0.6364    1.2198 H   0  0  0  1  0  0  0  0  0  0  0  0
   -1.5579   -1.2474   -0.5593 O   0  0  0  1  0  0  0  0  0  0  0  0
   -2.4477   -1.1759   -0.2060 H   0  0  0  1  0  0  0  0  0  0  0  0
   -0.7715    0.3228    0.0208 C   0  0  0  1  0  0  0  0  0  0  0  0
   -1.6069    0.4049   -0.6427 H   0  0  0  1  0  0  0  0  0  0  0  0
    0.6046    0.4051   -0.3593 C   0  0  0  1  0  0  0  0  0  0  0  0
    1.0482    0.6241   -1.3081 H   0  0  0  1  0  0  0  0  0  0  0  0
    1.4042    1.1184    0.5264 O   0  0  0  1  0  0  0  0  0  0  0  0
    2.1315    1.5224    0.0474 H   0  0  0  1  0  0  0  0  0  0  0  0
    1.7443   -0.4010    0.8352 O   0  0  0  1  0  0  0  0  0  0  0  0
    2.5961   -0.4873    0.4010 H   0  0  0  1  0  0  0  0  0  0  0  0
   -0.1369    0.7590   -0.2772 O   0  0  0  1  0  0  0  0  0  0  0  0
    0.7112   -0.3831   -0.1441 C   0  0  0  1  0  0  0  0  0  0  0  0
    1.1736   -0.9188   -0.9467 H   0  0  0  1  0  0  0  0  0  0  0  0
   -1.2271    1.2118    1.1450 C   0  0  0  1  0  0  0  0  0  0  0  0
   -0.5323    1.1254    1.9542 H   0  0  0  1  0  0  0  0  0  0  0  0
   -2.1942    0.8878    1.4686 H   0  0  0  1  0  0  0  0  0  0  0  0
   -1.3092    2.5760    0.7586 O   0  0  0  1  0  0  0  0  0  0  0  0
   -2.2079    2.7791    0.4888 H   0  0  0  1  0  0  0  0  0  0  0  0
  1  2  1  0  0  0  0
  1  3  1  0  0  0  0
  1  5  1  0  0  0  0
  1 18  1  0  0  0  0
  3  4  1  0  0  0  0
  5  6  1  0  0  0  0
  5  7  1  0  0  0  0
  5  9  1  0  0  0  0
  7  8  1  0  0  0  0
  9 10  1  0  0  0  0
  9 17  1  0  0  0  0
  9 20  1  0  0  0  0
 11 12  1  0  0  0  0
 11 13  1  0  0  0  0
 11 17  1  0  0  0  0
 11 18  1  0  0  0  0
 13 14  1  0  0  0  0
 15 16  1  0  0  0  0
 15 18  1  0  0  0  0
 18 19  1  0  0  0  0
 20 21  1  0  0  0  0
 20 22  1  0  0  0  0
 20 23  1  0  0  0  0
 23 24  1  0  0  0  0
M  END
> <ConfClashScore>
0.0501952 

> <ConfOneFourInteractionScore>
-0.971319 

> <ConfScore>
5.63787 

> <ConfScorePBest>
0.0139655 

> <ConfTolerance>
0.25 

$$$$
L12.****
  PyMOL2.4          3D                             0

 24 24  0  0  0  0  0  0  0  0999 V2000
    0.1259   -0.8307    0.2227 C   0  0  0  1  0  0  0  0  0  0  0  0
    0.0938   -1.2832    1.1918 H   0  0  0  1  0  0  0  0  0  0  0  0
    0.4367   -1.9545   -0.5940 O   0  0  0  1  0  0  0  0  0  0  0  0
   -0.1910   -2.6599   -0.4208 H   0  0  0  1  0  0  0  0  0  0  0  0
   -0.6285   -0.5624    0.0207 C   0  0  0  1  0  0  0  0  0  0  0  0
   -1.1326   -1.2513   -0.6245 H   0  0  0  1  0  0  0  0  0  0  0  0
   -1.4253   -0.6160    1.2054 O   0  0  0  1  0  0  0  0  0  0  0  0
   -1.0719   -0.0062    1.8572 H   0  0  0  1  0  0  0  0  0  0  0  0
   -0.7373    0.2175   -0.2219 C   0  0  0  1  0  0  0  0  0  0  0  0
   -1.5163    0.6676    0.3572 H   0  0  0  1  0  0  0  0  0  0  0  0
    0.6623    0.4628   -0.0611 C   0  0  0  1  0  0  0  0  0  0  0  0
    1.3700    0.7236   -0.8200 H   0  0  0  1  0  0  0  0  0  0  0  0
    1.1118    1.2207    1.0277 O   0  0  0  1  0  0  0  0  0  0  0  0
    1.2669    2.1253    0.7462 H   0  0  0  1  0  0  0  0  0  0  0  0
    1.7456   -0.8891   -0.6843 O   0  0  0  1  0  0  0  0  0  0  0  0
    2.5137   -1.1530   -0.1724 H   0  0  0  1  0  0  0  0  0  0  0  0
   -0.0921    0.7310   -0.2631 O   0  0  0  1  0  0  0  0  0  0  0  0
    0.7711   -0.3171    0.1816 C   0  0  0  1  0  0  0  0  0  0  0  0
    1.2935   -0.3289    1.1153 H   0  0  0  1  0  0  0  0  0  0  0  0
   -1.3293    0.3190   -1.6007 C   0  0  0  1  0  0  0  0  0  0  0  0
   -1.6536    1.3258   -1.7619 H   0  0  0  1  0  0  0  0  0  0  0  0
   -2.1691   -0.3411   -1.6632 H   0  0  0  1  0  0  0  0  0  0  0  0
   -0.3991   -0.0289   -2.6178 O   0  0  0  1  0  0  0  0  0  0  0  0
   -0.8733   -0.2719   -3.4163 H   0  0  0  1  0  0  0  0  0  0  0  0
  1  2  1  0  0  0  0
  1  3  1  0  0  0  0
  1  5  1  0  0  0  0
  1 18  1  0  0  0  0
  3  4  1  0  0  0  0
  5  6  1  0  0  0  0
  5  7  1  0  0  0  0
  5  9  1  0  0  0  0
  7  8  1  0  0  0  0
  9 10  1  0  0  0  0
  9 17  1  0  0  0  0
  9 20  1  0  0  0  0
 11 12  1  0  0  0  0
 11 13  1  0  0  0  0
 11 17  1  0  0  0  0
 11 18  1  0  0  0  0
 13 14  1  0  0  0  0
 15 16  1  0  0  0  0
 15 18  1  0  0  0  0
 18 19  1  0  0  0  0
 20 21  1  0  0  0  0
 20 22  1  0  0  0  0
 20 23  1  0  0  0  0
 23 24  1  0  0  0  0
M  END
> <ConfClashScore>
0.0499065 

> <ConfOneFourInteractionScore>
-0.978871 

> <ConfScore>
5.65763 

> <ConfScorePBest>
0.0138625 

> <ConfTolerance>
0.25 

$$$$
L12.****
  PyMOL2.4          3D                             0

 24 24  0  0  0  0  0  0  0  0999 V2000
    0.1899   -0.6699    0.4564 C   0  0  0  1  0  0  0  0  0  0  0  0
    0.2843   -0.9676    1.4798 H   0  0  0  1  0  0  0  0  0  0  0  0
    0.2607   -1.9182   -0.2243 O   0  0  0  1  0  0  0  0  0  0  0  0
    0.0986   -2.6317    0.3972 H   0  0  0  1  0  0  0  0  0  0  0  0
   -0.5743   -0.4030    0.2935 C   0  0  0  1  0  0  0  0  0  0  0  0
   -1.1577   -0.4057    1.1905 H   0  0  0  1  0  0  0  0  0  0  0  0
   -1.2323   -1.4149   -0.4709 O   0  0  0  1  0  0  0  0  0  0  0  0
   -2.1315   -1.5232   -0.1524 H   0  0  0  1  0  0  0  0  0  0  0  0
   -0.6857    0.3067   -0.1101 C   0  0  0  1  0  0  0  0  0  0  0  0
   -1.3571    0.1626   -0.9307 H   0  0  0  1  0  0  0  0  0  0  0  0
    0.7310    0.4843   -0.1891 C   0  0  0  1  0  0  0  0  0  0  0  0
    1.4001    0.6049   -1.0153 H   0  0  0  1  0  0  0  0  0  0  0  0
    1.1654    1.4568    0.7218 O   0  0  0  1  0  0  0  0  0  0  0  0
    1.4214    2.2501    0.2456 H   0  0  0  1  0  0  0  0  0  0  0  0
    1.5794   -1.0970   -0.6362 O   0  0  0  1  0  0  0  0  0  0  0  0
    2.4134   -1.3233   -0.2182 H   0  0  0  1  0  0  0  0  0  0  0  0
   -0.0332    0.7512   -0.3519 O   0  0  0  1  0  0  0  0  0  0  0  0
    0.8424   -0.2254    0.2146 C   0  0  0  1  0  0  0  0  0  0  0  0
    1.5239   -0.0899    1.0283 H   0  0  0  1  0  0  0  0  0  0  0  0
   -1.4718    1.2683    0.7343 C   0  0  0  1  0  0  0  0  0  0  0  0
   -0.9269    1.4828    1.6299 H   0  0  0  1  0  0  0  0  0  0  0  0
   -2.4153    0.8311    0.9864 H   0  0  0  1  0  0  0  0  0  0  0  0
   -1.6875    2.4736    0.0124 O   0  0  0  1  0  0  0  0  0  0  0  0
   -0.9360    3.0586    0.1335 H   0  0  0  1  0  0  0  0  0  0  0  0
  1  2  1  0  0  0  0
  1  3  1  0  0  0  0
  1  5  1  0  0  0  0
  1 18  1  0  0  0  0
  3  4  1  0  0  0  0
  5  6  1  0  0  0  0
  5  7  1  0  0  0  0
  5  9  1  0  0  0  0
  7  8  1  0  0  0  0
  9 10  1  0  0  0  0
  9 17  1  0  0  0  0
  9 20  1  0  0  0  0
 11 12  1  0  0  0  0
 11 13  1  0  0  0  0
 11 17  1  0  0  0  0
 11 18  1  0  0  0  0
 13 14  1  0  0  0  0
 15 16  1  0  0  0  0
 15 18  1  0  0  0  0
 18 19  1  0  0  0  0
 20 21  1  0  0  0  0
 20 22  1  0  0  0  0
 20 23  1  0  0  0  0
 23 24  1  0  0  0  0
M  END
> <ConfClashScore>
0.0509098 

> <ConfOneFourInteractionScore>
-0.971319 

> <ConfScore>
5.70921 

> <ConfScorePBest>
0.0137595 

> <ConfTolerance>
0.25 

$$$$
L12.****
  PyMOL2.4          3D                             0

 24 24  0  0  0  0  0  0  0  0999 V2000
    0.1664   -0.7167    0.3471 C   0  0  0  1  0  0  0  0  0  0  0  0
    0.4179   -1.0186    1.3424 H   0  0  0  1  0  0  0  0  0  0  0  0
    0.1134   -1.9696   -0.3267 O   0  0  0  1  0  0  0  0  0  0  0  0
    0.2440   -2.6796    0.3062 H   0  0  0  1  0  0  0  0  0  0  0  0
   -0.5943   -0.3961    0.3296 C   0  0  0  1  0  0  0  0  0  0  0  0
   -1.0736   -0.4618    1.2840 H   0  0  0  1  0  0  0  0  0  0  0  0
   -1.4032   -1.2535   -0.4779 O   0  0  0  1  0  0  0  0  0  0  0  0
   -2.2088   -1.4734   -0.0044 H   0  0  0  1  0  0  0  0  0  0  0  0
   -0.7256    0.3344   -0.0284 C   0  0  0  1  0  0  0  0  0  0  0  0
   -1.5390    0.2657   -0.7201 H   0  0  0  1  0  0  0  0  0  0  0  0
    0.6644    0.4255   -0.3521 C   0  0  0  1  0  0  0  0  0  0  0  0
    1.0867    0.4326   -1.3352 H   0  0  0  1  0  0  0  0  0  0  0  0
    1.5025    1.3350    0.3215 O   0  0  0  1  0  0  0  0  0  0  0  0
    1.8104    2.0037   -0.2947 H   0  0  0  1  0  0  0  0  0  0  0  0
    1.8071   -0.0771    0.9813 O   0  0  0  1  0  0  0  0  0  0  0  0
    2.2970   -0.8891    1.1307 H   0  0  0  1  0  0  0  0  0  0  0  0
   -0.0964    0.7461   -0.3696 O   0  0  0  1  0  0  0  0  0  0  0  0
    0.7956   -0.3050    0.0059 C   0  0  0  1  0  0  0  0  0  0  0  0
    1.3102   -0.9477   -0.6774 H   0  0  0  1  0  0  0  0  0  0  0  0
   -1.3078    1.2603    1.0009 C   0  0  0  1  0  0  0  0  0  0  0  0
   -0.5888    1.4493    1.7705 H   0  0  0  1  0  0  0  0  0  0  0  0
   -2.1847    0.8232    1.4310 H   0  0  0  1  0  0  0  0  0  0  0  0
   -1.6445    2.4766    0.3406 O   0  0  0  1  0  0  0  0  0  0  0  0
   -0.8703    2.8212   -0.1106 H   0  0  0  1  0  0  0  0  0  0  0  0
  1  2  1  0  0  0  0
  1  3  1  0  0  0  0
  1  5  1  0  0  0  0
  1 18  1  0  0  0  0
  3  4  1  0  0  0  0
  5  6  1  0  0  0  0
  5  7  1  0  0  0  0
  5  9  1  0  0  0  0
  7  8  1  0  0  0  0
  9 10  1  0  0  0  0
  9 17  1  0  0  0  0
  9 20  1  0  0  0  0
 11 12  1  0  0  0  0
 11 13  1  0  0  0  0
 11 17  1  0  0  0  0
 11 18  1  0  0  0  0
 13 14  1  0  0  0  0
 15 16  1  0  0  0  0
 15 18  1  0  0  0  0
 18 19  1  0  0  0  0
 20 21  1  0  0  0  0
 20 22  1  0  0  0  0
 20 23  1  0  0  0  0
 23 24  1  0  0  0  0
M  END
> <ConfClashScore>
0.0508563 

> <ConfOneFourInteractionScore>
-0.951485 

> <ConfScore>
5.72496 

> <ConfScorePBest>
0.0136565 

> <ConfTolerance>
0.25 

$$$$
L12.****
  PyMOL2.4          3D                             0

 24 24  0  0  0  0  0  0  0  0999 V2000
    0.0252   -0.7640   -0.1055 C   0  0  0  1  0  0  0  0  0  0  0  0
   -0.0688   -1.5259   -0.8510 H   0  0  0  1  0  0  0  0  0  0  0  0
    0.3669   -1.5280    1.0461 O   0  0  0  1  0  0  0  0  0  0  0  0
    0.3361   -2.4631    0.8310 H   0  0  0  1  0  0  0  0  0  0  0  0
   -0.7060   -0.4079    0.0367 C   0  0  0  1  0  0  0  0  0  0  0  0
   -1.4691   -0.8546   -0.5658 H   0  0  0  1  0  0  0  0  0  0  0  0
   -1.0871   -0.8256    1.3489 O   0  0  0  1  0  0  0  0  0  0  0  0
   -1.6719   -1.5843    1.2864 H   0  0  0  1  0  0  0  0  0  0  0  0
   -0.7724    0.4134    0.0317 C   0  0  0  1  0  0  0  0  0  0  0  0
   -1.2612    0.7459    0.9235 H   0  0  0  1  0  0  0  0  0  0  0  0
    0.6235    0.5244   -0.2579 C   0  0  0  1  0  0  0  0  0  0  0  0
    1.1431    0.9721   -1.0792 H   0  0  0  1  0  0  0  0  0  0  0  0
    1.3763    0.9189    0.8440 O   0  0  0  1  0  0  0  0  0  0  0  0
    2.1837    1.3436    0.5451 H   0  0  0  1  0  0  0  0  0  0  0  0
    1.7067   -0.5928    0.6986 O   0  0  0  1  0  0  0  0  0  0  0  0
    2.5640   -0.5773    0.2667 H   0  0  0  1  0  0  0  0  0  0  0  0
   -0.1077    0.8806   -0.1156 O   0  0  0  1  0  0  0  0  0  0  0  0
    0.6899   -0.2969   -0.2529 C   0  0  0  1  0  0  0  0  0  0  0  0
    1.1565   -0.6208   -1.1596 H   0  0  0  1  0  0  0  0  0  0  0  0
   -1.7606    0.8574   -1.0082 C   0  0  0  1  0  0  0  0  0  0  0  0
   -1.9095    1.9140   -0.9291 H   0  0  0  1  0  0  0  0  0  0  0  0
   -2.6913    0.3529   -0.8526 H   0  0  0  1  0  0  0  0  0  0  0  0
   -1.2650    0.5457   -2.3035 O   0  0  0  1  0  0  0  0  0  0  0  0
   -1.9540    0.6959   -2.9549 H   0  0  0  1  0  0  0  0  0  0  0  0
  1  2  1  0  0  0  0
  1  3  1  0  0  0  0
  1  5  1  0  0  0  0
  1 18  1  0  0  0  0
  3  4  1  0  0  0  0
  5  6  1  0  0  0  0
  5  7  1  0  0  0  0
  5  9  1  0  0  0  0
  7  8  1  0  0  0  0
  9 10  1  0  0  0  0
  9 17  1  0  0  0  0
  9 20  1  0  0  0  0
 11 12  1  0  0  0  0
 11 13  1  0  0  0  0
 11 17  1  0  0  0  0
 11 18  1  0  0  0  0
 13 14  1  0  0  0  0
 15 16  1  0  0  0  0
 15 18  1  0  0  0  0
 18 19  1  0  0  0  0
 20 21  1  0  0  0  0
 20 22  1  0  0  0  0
 20 23  1  0  0  0  0
 23 24  1  0  0  0  0
M  END
> <ConfClashScore>
0.0509594 

> <ConfOneFourInteractionScore>
-0.951485 

> <ConfScore>
5.73882 

> <ConfScorePBest>
0.0135535 

> <ConfTolerance>
0.25 

$$$$
L12.****
  PyMOL2.4          3D                             0

 24 24  0  0  0  0  0  0  0  0999 V2000
    0.0427   -0.5901    0.5276 C   0  0  0  1  0  0  0  0  0  0  0  0
   -0.0568   -0.9618    1.5260 H   0  0  0  1  0  0  0  0  0  0  0  0
    0.3792   -1.7711   -0.1925 O   0  0  0  1  0  0  0  0  0  0  0  0
    0.2996   -2.5329    0.3862 H   0  0  0  1  0  0  0  0  0  0  0  0
   -0.6892   -0.3500    0.2301 C   0  0  0  1  0  0  0  0  0  0  0  0
   -1.4329   -0.4532    0.9925 H   0  0  0  1  0  0  0  0  0  0  0  0
   -1.1096   -1.3504   -0.6994 O   0  0  0  1  0  0  0  0  0  0  0  0
   -1.6056   -2.0297   -0.2366 H   0  0  0  1  0  0  0  0  0  0  0  0
   -0.7663    0.3874   -0.1293 C   0  0  0  1  0  0  0  0  0  0  0  0
   -1.1823    0.2485   -1.1053 H   0  0  0  1  0  0  0  0  0  0  0  0
    0.6203    0.6466    0.1054 C   0  0  0  1  0  0  0  0  0  0  0  0
    1.0628    1.4151    0.7041 H   0  0  0  1  0  0  0  0  0  0  0  0
    1.5157    0.5645   -0.9812 O   0  0  0  1  0  0  0  0  0  0  0  0
    2.2028    1.2274   -0.8811 H   0  0  0  1  0  0  0  0  0  0  0  0
    1.6882   -0.7848   -0.2858 O   0  0  0  1  0  0  0  0  0  0  0  0
    2.4205   -1.0186    0.2893 H   0  0  0  1  0  0  0  0  0  0  0  0
   -0.1116    0.8867   -0.1921 O   0  0  0  1  0  0  0  0  0  0  0  0
    0.6974   -0.0909    0.4648 C   0  0  0  1  0  0  0  0  0  0  0  0
    1.1789    0.0087    1.4151 H   0  0  0  1  0  0  0  0  0  0  0  0
   -1.8867    1.1634    0.5251 C   0  0  0  1  0  0  0  0  0  0  0  0
   -2.7679    0.5565    0.5293 H   0  0  0  1  0  0  0  0  0  0  0  0
   -2.0673    2.0514   -0.0438 H   0  0  0  1  0  0  0  0  0  0  0  0
   -1.5814    1.5334    1.8633 O   0  0  0  1  0  0  0  0  0  0  0  0
   -1.9129    2.4178    2.0348 H   0  0  0  1  0  0  0  0  0  0  0  0
  1  2  1  0  0  0  0
  1  3  1  0  0  0  0
  1  5  1  0  0  0  0
  1 18  1  0  0  0  0
  3  4  1  0  0  0  0
  5  6  1  0  0  0  0
  5  7  1  0  0  0  0
  5  9  1  0  0  0  0
  7  8  1  0  0  0  0
  9 10  1  0  0  0  0
  9 17  1  0  0  0  0
  9 20  1  0  0  0  0
 11 12  1  0  0  0  0
 11 13  1  0  0  0  0
 11 17  1  0  0  0  0
 11 18  1  0  0  0  0
 13 14  1  0  0  0  0
 15 16  1  0  0  0  0
 15 18  1  0  0  0  0
 18 19  1  0  0  0  0
 20 21  1  0  0  0  0
 20 22  1  0  0  0  0
 20 23  1  0  0  0  0
 23 24  1  0  0  0  0
M  END
> <ConfClashScore>
0.0507127 

> <ConfOneFourInteractionScore>
-0.978871 

> <ConfScore>
5.74544 

> <ConfScorePBest>
0.0134505 

> <ConfTolerance>
0.25 

$$$$
L12.****
  PyMOL2.4          3D                             0

 24 24  0  0  0  0  0  0  0  0999 V2000
    0.1841   -0.7719    0.2011 C   0  0  0  1  0  0  0  0  0  0  0  0
    0.1461   -1.4452    1.0318 H   0  0  0  1  0  0  0  0  0  0  0  0
    0.2450   -1.6603   -0.9097 O   0  0  0  1  0  0  0  0  0  0  0  0
    0.3533   -2.5606   -0.5944 H   0  0  0  1  0  0  0  0  0  0  0  0
   -0.5433   -0.4025    0.0737 C   0  0  0  1  0  0  0  0  0  0  0  0
   -1.1385   -0.9378   -0.6363 H   0  0  0  1  0  0  0  0  0  0  0  0
   -1.2464   -0.6332    1.2959 O   0  0  0  1  0  0  0  0  0  0  0  0
   -1.6364   -1.5102    1.2806 H   0  0  0  1  0  0  0  0  0  0  0  0
   -0.5756    0.4110   -0.0538 C   0  0  0  1  0  0  0  0  0  0  0  0
   -1.2513    0.8386    0.6572 H   0  0  0  1  0  0  0  0  0  0  0  0
    0.8466    0.4875    0.0733 C   0  0  0  1  0  0  0  0  0  0  0  0
    1.4227    1.0150    0.8046 H   0  0  0  1  0  0  0  0  0  0  0  0
    1.6174    0.6556   -1.0889 O   0  0  0  1  0  0  0  0  0  0  0  0
    1.1635    1.2496   -1.6913 H   0  0  0  1  0  0  0  0  0  0  0  0
    1.4861   -0.4684    1.4805 O   0  0  0  1  0  0  0  0  0  0  0  0
    0.8935   -0.1300    2.1558 H   0  0  0  1  0  0  0  0  0  0  0  0
    0.1193    0.8569   -0.0541 O   0  0  0  1  0  0  0  0  0  0  0  0
    0.8790   -0.3260    0.2008 C   0  0  0  1  0  0  0  0  0  0  0  0
    1.6108   -0.7757   -0.4373 H   0  0  0  1  0  0  0  0  0  0  0  0
   -1.3088    0.7227   -1.3266 C   0  0  0  1  0  0  0  0  0  0  0  0
   -0.8082    0.2556   -2.1489 H   0  0  0  1  0  0  0  0  0  0  0  0
   -1.3283    1.7821   -1.4755 H   0  0  0  1  0  0  0  0  0  0  0  0
   -2.6433    0.2316   -1.2441 O   0  0  0  1  0  0  0  0  0  0  0  0
   -3.0393    0.5172   -0.4175 H   0  0  0  1  0  0  0  0  0  0  0  0
  1  2  1  0  0  0  0
  1  3  1  0  0  0  0
  1  5  1  0  0  0  0
  1 18  1  0  0  0  0
  3  4  1  0  0  0  0
  5  6  1  0  0  0  0
  5  7  1  0  0  0  0
  5  9  1  0  0  0  0
  7  8  1  0  0  0  0
  9 10  1  0  0  0  0
  9 17  1  0  0  0  0
  9 20  1  0  0  0  0
 11 12  1  0  0  0  0
 11 13  1  0  0  0  0
 11 17  1  0  0  0  0
 11 18  1  0  0  0  0
 13 14  1  0  0  0  0
 15 16  1  0  0  0  0
 15 18  1  0  0  0  0
 18 19  1  0  0  0  0
 20 21  1  0  0  0  0
 20 22  1  0  0  0  0
 20 23  1  0  0  0  0
 23 24  1  0  0  0  0
M  END
> <ConfClashScore>
0.0493711 

> <ConfOneFourInteractionScore>
-0.95019 

> <ConfScore>
5.74907 

> <ConfScorePBest>
0.0133475 

> <ConfTolerance>
0.25 

$$$$
L12.****
  PyMOL2.4          3D                             0

 24 24  0  0  0  0  0  0  0  0999 V2000
    0.2260   -0.7373    0.1500 C   0  0  0  1  0  0  0  0  0  0  0  0
    0.5139   -1.1802    1.0805 H   0  0  0  1  0  0  0  0  0  0  0  0
    0.0788   -1.8733   -0.6954 O   0  0  0  1  0  0  0  0  0  0  0  0
   -0.3564   -2.5788   -0.2112 H   0  0  0  1  0  0  0  0  0  0  0  0
   -0.5382   -0.4264    0.1841 C   0  0  0  1  0  0  0  0  0  0  0  0
   -1.2511   -1.1296   -0.1929 H   0  0  0  1  0  0  0  0  0  0  0  0
   -0.8737   -0.3853    1.5723 O   0  0  0  1  0  0  0  0  0  0  0  0
   -1.6314   -0.9516    1.7358 H   0  0  0  1  0  0  0  0  0  0  0  0
   -0.6893    0.3290   -0.1084 C   0  0  0  1  0  0  0  0  0  0  0  0
   -1.2345    0.9078    0.6075 H   0  0  0  1  0  0  0  0  0  0  0  0
    0.6876    0.4643   -0.4700 C   0  0  0  1  0  0  0  0  0  0  0  0
    1.1189    0.5995   -1.4398 H   0  0  0  1  0  0  0  0  0  0  0  0
    1.5334    1.2294    0.3435 O   0  0  0  1  0  0  0  0  0  0  0  0
    1.0183    1.6484    1.0367 H   0  0  0  1  0  0  0  0  0  0  0  0
    1.8133   -0.2140    0.8574 O   0  0  0  1  0  0  0  0  0  0  0  0
    2.4218   -0.9524    0.7801 H   0  0  0  1  0  0  0  0  0  0  0  0
   -0.0766    0.7752   -0.4358 O   0  0  0  1  0  0  0  0  0  0  0  0
    0.8387   -0.2910   -0.1775 C   0  0  0  1  0  0  0  0  0  0  0  0
    1.3573   -0.8698   -0.9130 H   0  0  0  1  0  0  0  0  0  0  0  0
   -1.6900    0.2511   -1.2409 C   0  0  0  1  0  0  0  0  0  0  0  0
   -1.9561    1.2455   -1.5330 H   0  0  0  1  0  0  0  0  0  0  0  0
   -2.5612   -0.2646   -0.8944 H   0  0  0  1  0  0  0  0  0  0  0  0
   -1.1748   -0.4347   -2.3744 O   0  0  0  1  0  0  0  0  0  0  0  0
   -0.6200    0.1603   -2.8841 H   0  0  0  1  0  0  0  0  0  0  0  0
  1  2  1  0  0  0  0
  1  3  1  0  0  0  0
  1  5  1  0  0  0  0
  1 18  1  0  0  0  0
  3  4  1  0  0  0  0
  5  6  1  0  0  0  0
  5  7  1  0  0  0  0
  5  9  1  0  0  0  0
  7  8  1  0  0  0  0
  9 10  1  0  0  0  0
  9 17  1  0  0  0  0
  9 20  1  0  0  0  0
 11 12  1  0  0  0  0
 11 13  1  0  0  0  0
 11 17  1  0  0  0  0
 11 18  1  0  0  0  0
 13 14  1  0  0  0  0
 15 16  1  0  0  0  0
 15 18  1  0  0  0  0
 18 19  1  0  0  0  0
 20 21  1  0  0  0  0
 20 22  1  0  0  0  0
 20 23  1  0  0  0  0
 23 24  1  0  0  0  0
M  END
> <ConfClashScore>
0.0512989 

> <ConfOneFourInteractionScore>
-0.951485 

> <ConfScore>
5.75406 

> <ConfScorePBest>
0.0132445 

> <ConfTolerance>
0.25 

$$$$
L12.****
  PyMOL2.4          3D                             0

 24 24  0  0  0  0  0  0  0  0999 V2000
    0.1608   -0.7384    0.0728 C   0  0  0  1  0  0  0  0  0  0  0  0
    0.5302   -1.3478   -0.7253 H   0  0  0  1  0  0  0  0  0  0  0  0
   -0.0255   -1.6980    1.1078 O   0  0  0  1  0  0  0  0  0  0  0  0
    0.2270   -2.5673    0.7881 H   0  0  0  1  0  0  0  0  0  0  0  0
   -0.5678   -0.4066   -0.1292 C   0  0  0  1  0  0  0  0  0  0  0  0
   -0.9234   -0.7586   -1.0751 H   0  0  0  1  0  0  0  0  0  0  0  0
   -1.4565   -1.0400    0.7929 O   0  0  0  1  0  0  0  0  0  0  0  0
   -1.9164   -1.7586    0.3527 H   0  0  0  1  0  0  0  0  0  0  0  0
   -0.6945    0.4015   -0.0298 C   0  0  0  1  0  0  0  0  0  0  0  0
   -1.5992    0.5648    0.5177 H   0  0  0  1  0  0  0  0  0  0  0  0
    0.6358    0.5480    0.4739 C   0  0  0  1  0  0  0  0  0  0  0  0
    0.9297    0.8570    1.4552 H   0  0  0  1  0  0  0  0  0  0  0  0
    1.6181    1.1538   -0.3269 O   0  0  0  1  0  0  0  0  0  0  0  0
    1.5030    2.1067   -0.3093 H   0  0  0  1  0  0  0  0  0  0  0  0
    1.8123   -0.4033   -0.5763 O   0  0  0  1  0  0  0  0  0  0  0  0
    2.2117   -1.2714   -0.4843 H   0  0  0  1  0  0  0  0  0  0  0  0
   -0.0929    0.8798    0.2719 O   0  0  0  1  0  0  0  0  0  0  0  0
    0.7624   -0.2601    0.3745 C   0  0  0  1  0  0  0  0  0  0  0  0
    1.1952   -0.6934    1.2519 H   0  0  0  1  0  0  0  0  0  0  0  0
   -1.0430    1.0469   -1.3401 C   0  0  0  1  0  0  0  0  0  0  0  0
   -1.7984    0.4696   -1.8311 H   0  0  0  1  0  0  0  0  0  0  0  0
   -0.1703    1.0921   -1.9575 H   0  0  0  1  0  0  0  0  0  0  0  0
   -1.5285    2.3632   -1.1112 O   0  0  0  1  0  0  0  0  0  0  0  0
   -1.4649    2.8736   -1.9217 H   0  0  0  1  0  0  0  0  0  0  0  0
  1  2  1  0  0  0  0
  1  3  1  0  0  0  0
  1  5  1  0  0  0  0
  1 18  1  0  0  0  0
  3  4  1  0  0  0  0
  5  6  1  0  0  0  0
  5  7  1  0  0  0  0
  5  9  1  0  0  0  0
  7  8  1  0  0  0  0
  9 10  1  0  0  0  0
  9 17  1  0  0  0  0
  9 20  1  0  0  0  0
 11 12  1  0  0  0  0
 11 13  1  0  0  0  0
 11 17  1  0  0  0  0
 11 18  1  0  0  0  0
 13 14  1  0  0  0  0
 15 16  1  0  0  0  0
 15 18  1  0  0  0  0
 18 19  1  0  0  0  0
 20 21  1  0  0  0  0
 20 22  1  0  0  0  0
 20 23  1  0  0  0  0
 23 24  1  0  0  0  0
M  END
> <ConfClashScore>
0.0510783 

> <ConfOneFourInteractionScore>
-0.95019 

> <ConfScore>
5.76685 

> <ConfScorePBest>
0.0131415 

> <ConfTolerance>
0.25 

$$$$
L12.****
  PyMOL2.4          3D                             0

 24 24  0  0  0  0  0  0  0  0999 V2000
    0.1709   -0.6669    0.5018 C   0  0  0  1  0  0  0  0  0  0  0  0
    0.2627   -1.0839    1.4830 H   0  0  0  1  0  0  0  0  0  0  0  0
    0.2660   -1.8204   -0.3270 O   0  0  0  1  0  0  0  0  0  0  0  0
    0.2737   -2.6088    0.2206 H   0  0  0  1  0  0  0  0  0  0  0  0
   -0.5853   -0.3615    0.3726 C   0  0  0  1  0  0  0  0  0  0  0  0
   -1.2114   -0.4897    1.2307 H   0  0  0  1  0  0  0  0  0  0  0  0
   -1.1667   -1.2702   -0.5642 O   0  0  0  1  0  0  0  0  0  0  0  0
   -2.0854   -1.4251   -0.3325 H   0  0  0  1  0  0  0  0  0  0  0  0
   -0.6762    0.3875    0.0413 C   0  0  0  1  0  0  0  0  0  0  0  0
   -1.3249    0.3200   -0.8070 H   0  0  0  1  0  0  0  0  0  0  0  0
    0.7451    0.5274   -0.0323 C   0  0  0  1  0  0  0  0  0  0  0  0
    1.3880    1.2463    0.4311 H   0  0  0  1  0  0  0  0  0  0  0  0
    1.3424    0.3507   -1.2914 O   0  0  0  1  0  0  0  0  0  0  0  0
    0.8777    0.8802   -1.9436 H   0  0  0  1  0  0  0  0  0  0  0  0
    1.6587   -0.0355    1.4458 O   0  0  0  1  0  0  0  0  0  0  0  0
    2.5349   -0.3874    1.2721 H   0  0  0  1  0  0  0  0  0  0  0  0
   -0.0111    0.8328   -0.1616 O   0  0  0  1  0  0  0  0  0  0  0  0
    0.8360   -0.2216    0.2990 C   0  0  0  1  0  0  0  0  0  0  0  0
    1.4794   -0.8088   -0.3223 H   0  0  0  1  0  0  0  0  0  0  0  0
   -1.5073    1.2500    0.9468 C   0  0  0  1  0  0  0  0  0  0  0  0
   -1.5730    2.2362    0.5369 H   0  0  0  1  0  0  0  0  0  0  0  0
   -1.0505    1.2947    1.9134 H   0  0  0  1  0  0  0  0  0  0  0  0
   -2.8127    0.7001    1.0662 O   0  0  0  1  0  0  0  0  0  0  0  0
   -2.9091    0.2877    1.9277 H   0  0  0  1  0  0  0  0  0  0  0  0
  1  2  1  0  0  0  0
  1  3  1  0  0  0  0
  1  5  1  0  0  0  0
  1 18  1  0  0  0  0
  3  4  1  0  0  0  0
  5  6  1  0  0  0  0
  5  7  1  0  0  0  0
  5  9  1  0  0  0  0
  7  8  1  0  0  0  0
  9 10  1  0  0  0  0
  9 17  1  0  0  0  0
  9 20  1  0  0  0  0
 11 12  1  0  0  0  0
 11 13  1  0  0  0  0
 11 17  1  0  0  0  0
 11 18  1  0  0  0  0
 13 14  1  0  0  0  0
 15 16  1  0  0  0  0
 15 18  1  0  0  0  0
 18 19  1  0  0  0  0
 20 21  1  0  0  0  0
 20 22  1  0  0  0  0
 20 23  1  0  0  0  0
 23 24  1  0  0  0  0
M  END
> <ConfClashScore>
0.0496658 

> <ConfOneFourInteractionScore>
-0.95019 

> <ConfScore>
5.77932 

> <ConfScorePBest>
0.0130385 

> <ConfTolerance>
0.25 

$$$$
L12.****
  PyMOL2.4          3D                             0

 24 24  0  0  0  0  0  0  0  0999 V2000
    0.1118   -0.7457    0.1745 C   0  0  0  1  0  0  0  0  0  0  0  0
    0.0789   -1.5106   -0.5730 H   0  0  0  1  0  0  0  0  0  0  0  0
    0.2998   -1.5173    1.3560 O   0  0  0  1  0  0  0  0  0  0  0  0
    0.5599   -2.4101    1.1177 H   0  0  0  1  0  0  0  0  0  0  0  0
   -0.6252   -0.3777    0.2307 C   0  0  0  1  0  0  0  0  0  0  0  0
   -1.1812   -0.7596    1.0614 H   0  0  0  1  0  0  0  0  0  0  0  0
   -1.3535   -0.9053   -0.8795 O   0  0  0  1  0  0  0  0  0  0  0  0
   -1.8590   -1.6708   -0.5966 H   0  0  0  1  0  0  0  0  0  0  0  0
   -0.6799    0.4436    0.1914 C   0  0  0  1  0  0  0  0  0  0  0  0
   -1.4206    0.7320   -0.5249 H   0  0  0  1  0  0  0  0  0  0  0  0
    0.7393    0.5308    0.0396 C   0  0  0  1  0  0  0  0  0  0  0  0
    1.4514    0.9956    0.6890 H   0  0  0  1  0  0  0  0  0  0  0  0
    1.2629    0.8214   -1.2311 O   0  0  0  1  0  0  0  0  0  0  0  0
    0.9139    1.6617   -1.5370 H   0  0  0  1  0  0  0  0  0  0  0  0
    1.6279   -0.6063    1.1886 O   0  0  0  1  0  0  0  0  0  0  0  0
    2.4031   -1.0823    0.8817 H   0  0  0  1  0  0  0  0  0  0  0  0
    0.0023    0.8988    0.0957 O   0  0  0  1  0  0  0  0  0  0  0  0
    0.7940   -0.2904    0.0789 C   0  0  0  1  0  0  0  0  0  0  0  0
    1.3752   -0.6626   -0.7388 H   0  0  0  1  0  0  0  0  0  0  0  0
   -1.2342    1.0698    1.4389 C   0  0  0  1  0  0  0  0  0  0  0  0
   -2.1390    0.5754    1.7248 H   0  0  0  1  0  0  0  0  0  0  0  0
   -1.4324    2.1075    1.2697 H   0  0  0  1  0  0  0  0  0  0  0  0
   -0.2571    0.9227    2.4608 O   0  0  0  1  0  0  0  0  0  0  0  0
   -0.0904   -0.0104    2.6128 H   0  0  0  1  0  0  0  0  0  0  0  0
  1  2  1  0  0  0  0
  1  3  1  0  0  0  0
  1  5  1  0  0  0  0
  1 18  1  0  0  0  0
  3  4  1  0  0  0  0
  5  6  1  0  0  0  0
  5  7  1  0  0  0  0
  5  9  1  0  0  0  0
  7  8  1  0  0  0  0
  9 10  1  0  0  0  0
  9 17  1  0  0  0  0
  9 20  1  0  0  0  0
 11 12  1  0  0  0  0
 11 13  1  0  0  0  0
 11 17  1  0  0  0  0
 11 18  1  0  0  0  0
 13 14  1  0  0  0  0
 15 16  1  0  0  0  0
 15 18  1  0  0  0  0
 18 19  1  0  0  0  0
 20 21  1  0  0  0  0
 20 22  1  0  0  0  0
 20 23  1  0  0  0  0
 23 24  1  0  0  0  0
M  END
> <ConfClashScore>
0.0512351 

> <ConfOneFourInteractionScore>
-0.951485 

> <ConfScore>
5.79233 

> <ConfScorePBest>
0.0129355 

> <ConfTolerance>
0.25 

$$$$
L12.****
  PyMOL2.4          3D                             0

 24 24  0  0  0  0  0  0  0  0999 V2000
    0.0879   -0.7142    0.4047 C   0  0  0  1  0  0  0  0  0  0  0  0
   -0.0580   -1.2220    1.3351 H   0  0  0  1  0  0  0  0  0  0  0  0
    0.6051   -1.7540   -0.4186 O   0  0  0  1  0  0  0  0  0  0  0  0
    0.3660   -2.6062   -0.0467 H   0  0  0  1  0  0  0  0  0  0  0  0
   -0.6366   -0.5048    0.0684 C   0  0  0  1  0  0  0  0  0  0  0  0
   -0.9092   -1.2109   -0.6878 H   0  0  0  1  0  0  0  0  0  0  0  0
   -1.5916   -0.7991    1.0895 O   0  0  0  1  0  0  0  0  0  0  0  0
   -2.3879   -1.1569    0.6900 H   0  0  0  1  0  0  0  0  0  0  0  0
   -0.7581    0.2636   -0.2033 C   0  0  0  1  0  0  0  0  0  0  0  0
   -1.6782    0.6560    0.1764 H   0  0  0  1  0  0  0  0  0  0  0  0
    0.5691    0.6150    0.1967 C   0  0  0  1  0  0  0  0  0  0  0  0
    0.8569    1.3272    0.9416 H   0  0  0  1  0  0  0  0  0  0  0  0
    1.5596    0.7979   -0.7768 O   0  0  0  1  0  0  0  0  0  0  0  0
    2.2612    1.3479   -0.4207 H   0  0  0  1  0  0  0  0  0  0  0  0
    1.8085   -0.6487   -0.2606 O   0  0  0  1  0  0  0  0  0  0  0  0
    2.6037   -0.5544    0.2690 H   0  0  0  1  0  0  0  0  0  0  0  0
   -0.1554    0.8244   -0.1395 O   0  0  0  1  0  0  0  0  0  0  0  0
    0.6906   -0.1534    0.4685 C   0  0  0  1  0  0  0  0  0  0  0  0
    1.0759   -0.1367    1.4666 H   0  0  0  1  0  0  0  0  0  0  0  0
   -1.0426    0.2443   -1.6895 C   0  0  0  1  0  0  0  0  0  0  0  0
   -1.2249    1.2464   -2.0172 H   0  0  0  1  0  0  0  0  0  0  0  0
   -1.9131   -0.3527   -1.8647 H   0  0  0  1  0  0  0  0  0  0  0  0
    0.0374   -0.2922   -2.4421 O   0  0  0  1  0  0  0  0  0  0  0  0
   -0.2073   -0.3330   -3.3695 H   0  0  0  1  0  0  0  0  0  0  0  0
  1  2  1  0  0  0  0
  1  3  1  0  0  0  0
  1  5  1  0  0  0  0
  1 18  1  0  0  0  0
  3  4  1  0  0  0  0
  5  6  1  0  0  0  0
  5  7  1  0  0  0  0
  5  9  1  0  0  0  0
  7  8  1  0  0  0  0
  9 10  1  0  0  0  0
  9 17  1  0  0  0  0
  9 20  1  0  0  0  0
 11 12  1  0  0  0  0
 11 13  1  0  0  0  0
 11 17  1  0  0  0  0
 11 18  1  0  0  0  0
 13 14  1  0  0  0  0
 15 16  1  0  0  0  0
 15 18  1  0  0  0  0
 18 19  1  0  0  0  0
 20 21  1  0  0  0  0
 20 22  1  0  0  0  0
 20 23  1  0  0  0  0
 23 24  1  0  0  0  0
M  END
> <ConfClashScore>
0.0513581 

> <ConfOneFourInteractionScore>
-0.971319 

> <ConfScore>
5.79694 

> <ConfScorePBest>
0.0128325 

> <ConfTolerance>
0.25 

$$$$
L12.****
  PyMOL2.4          3D                             0

 24 24  0  0  0  0  0  0  0  0999 V2000
    0.0766   -0.7710    0.3968 C   0  0  0  1  0  0  0  0  0  0  0  0
    0.2351   -1.6660   -0.1678 H   0  0  0  1  0  0  0  0  0  0  0  0
   -0.1006   -1.2797    1.7145 O   0  0  0  1  0  0  0  0  0  0  0  0
   -0.0898   -2.2393    1.6917 H   0  0  0  1  0  0  0  0  0  0  0  0
   -0.6660   -0.4475    0.2365 C   0  0  0  1  0  0  0  0  0  0  0  0
   -1.3522   -0.7137    1.0131 H   0  0  0  1  0  0  0  0  0  0  0  0
   -1.2152   -1.1554   -0.8765 O   0  0  0  1  0  0  0  0  0  0  0  0
   -0.6261   -1.0744   -1.6301 H   0  0  0  1  0  0  0  0  0  0  0  0
   -0.7374    0.3549    0.0635 C   0  0  0  1  0  0  0  0  0  0  0  0
   -1.3041    0.4895   -0.8341 H   0  0  0  1  0  0  0  0  0  0  0  0
    0.6763    0.5124    0.2106 C   0  0  0  1  0  0  0  0  0  0  0  0
    1.1793    1.0960    0.9531 H   0  0  0  1  0  0  0  0  0  0  0  0
    1.5020    0.6869   -0.8953 O   0  0  0  1  0  0  0  0  0  0  0  0
    1.1749    1.4158   -1.4276 H   0  0  0  1  0  0  0  0  0  0  0  0
    1.6373   -0.8593   -0.5709 O   0  0  0  1  0  0  0  0  0  0  0  0
    2.5242   -0.8888   -0.2046 H   0  0  0  1  0  0  0  0  0  0  0  0
   -0.0664    0.8359    0.0503 O   0  0  0  1  0  0  0  0  0  0  0  0
    0.7476   -0.2900    0.3836 C   0  0  0  1  0  0  0  0  0  0  0  0
    1.3022   -0.4177    1.2897 H   0  0  0  1  0  0  0  0  0  0  0  0
   -1.6307    1.0264    1.0665 C   0  0  0  1  0  0  0  0  0  0  0  0
   -2.5436    0.4729    1.1381 H   0  0  0  1  0  0  0  0  0  0  0  0
   -1.8408    2.0196    0.7284 H   0  0  0  1  0  0  0  0  0  0  0  0
   -1.0392    1.0995    2.3570 O   0  0  0  1  0  0  0  0  0  0  0  0
   -1.3114    0.3403    2.8778 H   0  0  0  1  0  0  0  0  0  0  0  0
  1  2  1  0  0  0  0
  1  3  1  0  0  0  0
  1  5  1  0  0  0  0
  1 18  1  0  0  0  0
  3  4  1  0  0  0  0
  5  6  1  0  0  0  0
  5  7  1  0  0  0  0
  5  9  1  0  0  0  0
  7  8  1  0  0  0  0
  9 10  1  0  0  0  0
  9 17  1  0  0  0  0
  9 20  1  0  0  0  0
 11 12  1  0  0  0  0
 11 13  1  0  0  0  0
 11 17  1  0  0  0  0
 11 18  1  0  0  0  0
 13 14  1  0  0  0  0
 15 16  1  0  0  0  0
 15 18  1  0  0  0  0
 18 19  1  0  0  0  0
 20 21  1  0  0  0  0
 20 22  1  0  0  0  0
 20 23  1  0  0  0  0
 23 24  1  0  0  0  0
M  END
> <ConfClashScore>
0.0514994 

> <ConfOneFourInteractionScore>
-0.951485 

> <ConfScore>
5.80846 

> <ConfScorePBest>
0.0127295 

> <ConfTolerance>
0.25 

$$$$
L12.****
  PyMOL2.4          3D                             0

 24 24  0  0  0  0  0  0  0  0999 V2000
    0.1159   -0.8423    0.0515 C   0  0  0  1  0  0  0  0  0  0  0  0
    0.2111   -1.6803   -0.6070 H   0  0  0  1  0  0  0  0  0  0  0  0
    0.1180   -1.4691    1.3297 O   0  0  0  1  0  0  0  0  0  0  0  0
    0.6600   -2.2608    1.2975 H   0  0  0  1  0  0  0  0  0  0  0  0
   -0.6375   -0.5086   -0.0022 C   0  0  0  1  0  0  0  0  0  0  0  0
   -1.1722   -0.9979   -0.7893 H   0  0  0  1  0  0  0  0  0  0  0  0
   -1.3978   -0.9086    1.1210 O   0  0  0  1  0  0  0  0  0  0  0  0
   -2.3286   -0.9296    0.8869 H   0  0  0  1  0  0  0  0  0  0  0  0
   -0.7219    0.3060   -0.0934 C   0  0  0  1  0  0  0  0  0  0  0  0
   -1.4151    0.6897    0.6258 H   0  0  0  1  0  0  0  0  0  0  0  0
    0.7002    0.4551   -0.0774 C   0  0  0  1  0  0  0  0  0  0  0  0
    1.3918    0.8710   -0.7800 H   0  0  0  1  0  0  0  0  0  0  0  0
    1.1656    0.9317    1.1530 O   0  0  0  1  0  0  0  0  0  0  0  0
    1.7618    1.6697    1.0061 H   0  0  0  1  0  0  0  0  0  0  0  0
    1.6068   -0.8139   -1.0559 O   0  0  0  1  0  0  0  0  0  0  0  0
    2.4799   -0.4227   -0.9775 H   0  0  0  1  0  0  0  0  0  0  0  0
   -0.0531    0.7889   -0.1311 O   0  0  0  1  0  0  0  0  0  0  0  0
    0.7846   -0.3594    0.0137 C   0  0  0  1  0  0  0  0  0  0  0  0
    1.4139   -0.5592    0.8558 H   0  0  0  1  0  0  0  0  0  0  0  0
   -1.4164    0.6552   -1.3640 C   0  0  0  1  0  0  0  0  0  0  0  0
   -2.4043    0.2457   -1.3278 H   0  0  0  1  0  0  0  0  0  0  0  0
   -0.8751    0.2111   -2.1732 H   0  0  0  1  0  0  0  0  0  0  0  0
   -1.5229    2.0404   -1.6134 O   0  0  0  1  0  0  0  0  0  0  0  0
   -0.7717    2.3306   -2.1360 H   0  0  0  1  0  0  0  0  0  0  0  0
  1  2  1  0  0  0  0
  1  3  1  0  0  0  0
  1  5  1  0  0  0  0
  1 18  1  0  0  0  0
  3  4  1  0  0  0  0
  5  6  1  0  0  0  0
  5  7  1  0  0  0  0
  5  9  1  0  0  0  0
  7  8  1  0  0  0  0
  9 10  1  0  0  0  0
  9 17  1  0  0  0  0
  9 20  1  0  0  0  0
 11 12  1  0  0  0  0
 11 13  1  0  0  0  0
 11 17  1  0  0  0  0
 11 18  1  0  0  0  0
 13 14  1  0  0  0  0
 15 16  1  0  0  0  0
 15 18  1  0  0  0  0
 18 19  1  0  0  0  0
 20 21  1  0  0  0  0
 20 22  1  0  0  0  0
 20 23  1  0  0  0  0
 23 24  1  0  0  0  0
M  END
> <ConfClashScore>
0.0515425 

> <ConfOneFourInteractionScore>
-0.971319 

> <ConfScore>
5.82384 

> <ConfScorePBest>
0.0126265 

> <ConfTolerance>
0.25 

$$$$
L12.****
  PyMOL2.4          3D                             0

 24 24  0  0  0  0  0  0  0  0999 V2000
    0.1609   -0.8478    0.0688 C   0  0  0  1  0  0  0  0  0  0  0  0
    0.0852   -1.7733   -0.4627 H   0  0  0  1  0  0  0  0  0  0  0  0
    0.5725   -1.2798    1.3766 O   0  0  0  1  0  0  0  0  0  0  0  0
    0.1259   -2.1001    1.5984 H   0  0  0  1  0  0  0  0  0  0  0  0
   -0.5823   -0.5227    0.2230 C   0  0  0  1  0  0  0  0  0  0  0  0
   -0.9317   -0.8040    1.1944 H   0  0  0  1  0  0  0  0  0  0  0  0
   -1.5146   -1.1867   -0.6321 O   0  0  0  1  0  0  0  0  0  0  0  0
   -2.4005   -1.0930   -0.2743 H   0  0  0  1  0  0  0  0  0  0  0  0
   -0.7208    0.2764    0.0772 C   0  0  0  1  0  0  0  0  0  0  0  0
   -1.6115    0.3988   -0.5030 H   0  0  0  1  0  0  0  0  0  0  0  0
    0.6266    0.4271   -0.3773 C   0  0  0  1  0  0  0  0  0  0  0  0
    0.9711    0.7046   -1.3516 H   0  0  0  1  0  0  0  0  0  0  0  0
    1.5701    1.0485    0.4576 O   0  0  0  1  0  0  0  0  0  0  0  0
    1.7264    1.9453    0.1526 H   0  0  0  1  0  0  0  0  0  0  0  0
    1.7825   -0.4506    0.7612 O   0  0  0  1  0  0  0  0  0  0  0  0
    2.6161   -0.6867    0.3478 H   0  0  0  1  0  0  0  0  0  0  0  0
   -0.1165    0.7523   -0.2231 O   0  0  0  1  0  0  0  0  0  0  0  0
    0.7652   -0.3719   -0.2315 C   0  0  0  1  0  0  0  0  0  0  0  0
    1.2377   -0.8382   -1.0707 H   0  0  0  1  0  0  0  0  0  0  0  0
   -1.0954    1.0167    1.3316 C   0  0  0  1  0  0  0  0  0  0  0  0
   -1.9746    0.5686    1.7452 H   0  0  0  1  0  0  0  0  0  0  0  0
   -1.2987    2.0368    1.0805 H   0  0  0  1  0  0  0  0  0  0  0  0
   -0.0713    0.9848    2.3024 O   0  0  0  1  0  0  0  0  0  0  0  0
   -0.4546    1.0918    3.1761 H   0  0  0  1  0  0  0  0  0  0  0  0
  1  2  1  0  0  0  0
  1  3  1  0  0  0  0
  1  5  1  0  0  0  0
  1 18  1  0  0  0  0
  3  4  1  0  0  0  0
  5  6  1  0  0  0  0
  5  7  1  0  0  0  0
  5  9  1  0  0  0  0
  7  8  1  0  0  0  0
  9 10  1  0  0  0  0
  9 17  1  0  0  0  0
  9 20  1  0  0  0  0
 11 12  1  0  0  0  0
 11 13  1  0  0  0  0
 11 17  1  0  0  0  0
 11 18  1  0  0  0  0
 13 14  1  0  0  0  0
 15 16  1  0  0  0  0
 15 18  1  0  0  0  0
 18 19  1  0  0  0  0
 20 21  1  0  0  0  0
 20 22  1  0  0  0  0
 20 23  1  0  0  0  0
 23 24  1  0  0  0  0
M  END
> <ConfClashScore>
0.051743 

> <ConfOneFourInteractionScore>
-0.971319 

> <ConfScore>
5.8526 

> <ConfScorePBest>
0.0125235 

> <ConfTolerance>
0.25 

$$$$
L12.****
  PyMOL2.4          3D                             0

 24 24  0  0  0  0  0  0  0  0999 V2000
    0.2025   -0.7847    0.0035 C   0  0  0  1  0  0  0  0  0  0  0  0
    0.5528   -1.3737   -0.8183 H   0  0  0  1  0  0  0  0  0  0  0  0
   -0.0074   -1.7601    1.0190 O   0  0  0  1  0  0  0  0  0  0  0  0
    0.5578   -2.5188    0.8563 H   0  0  0  1  0  0  0  0  0  0  0  0
   -0.5427   -0.4598   -0.1410 C   0  0  0  1  0  0  0  0  0  0  0  0
   -0.8965   -0.7110   -1.1191 H   0  0  0  1  0  0  0  0  0  0  0  0
   -1.4458   -1.1781    0.7007 O   0  0  0  1  0  0  0  0  0  0  0  0
   -2.3396   -1.0886    0.3620 H   0  0  0  1  0  0  0  0  0  0  0  0
   -0.6899    0.3305    0.0399 C   0  0  0  1  0  0  0  0  0  0  0  0
   -1.5624    0.3949    0.6558 H   0  0  0  1  0  0  0  0  0  0  0  0
    0.6530    0.4729    0.5103 C   0  0  0  1  0  0  0  0  0  0  0  0
    0.9901    0.7104    1.4976 H   0  0  0  1  0  0  0  0  0  0  0  0
    1.5436    1.2006   -0.2895 O   0  0  0  1  0  0  0  0  0  0  0  0
    1.1417    2.0363   -0.5379 H   0  0  0  1  0  0  0  0  0  0  0  0
    1.8899   -0.3545   -0.5859 O   0  0  0  1  0  0  0  0  0  0  0  0
    2.4128   -1.1443   -0.4298 H   0  0  0  1  0  0  0  0  0  0  0  0
   -0.0922    0.7978    0.3657 O   0  0  0  1  0  0  0  0  0  0  0  0
    0.8002   -0.3174    0.3294 C   0  0  0  1  0  0  0  0  0  0  0  0
    1.2230   -0.8113    1.1792 H   0  0  0  1  0  0  0  0  0  0  0  0
   -1.1237    1.1738   -1.1350 C   0  0  0  1  0  0  0  0  0  0  0  0
   -1.1278    2.2015   -0.8370 H   0  0  0  1  0  0  0  0  0  0  0  0
   -2.1122    0.8810   -1.4213 H   0  0  0  1  0  0  0  0  0  0  0  0
   -0.2681    1.0285   -2.2480 O   0  0  0  1  0  0  0  0  0  0  0  0
    0.5995    0.7451   -1.9504 H   0  0  0  1  0  0  0  0  0  0  0  0
  1  2  1  0  0  0  0
  1  3  1  0  0  0  0
  1  5  1  0  0  0  0
  1 18  1  0  0  0  0
  3  4  1  0  0  0  0
  5  6  1  0  0  0  0
  5  7  1  0  0  0  0
  5  9  1  0  0  0  0
  7  8  1  0  0  0  0
  9 10  1  0  0  0  0
  9 17  1  0  0  0  0
  9 20  1  0  0  0  0
 11 12  1  0  0  0  0
 11 13  1  0  0  0  0
 11 17  1  0  0  0  0
 11 18  1  0  0  0  0
 13 14  1  0  0  0  0
 15 16  1  0  0  0  0
 15 18  1  0  0  0  0
 18 19  1  0  0  0  0
 20 21  1  0  0  0  0
 20 22  1  0  0  0  0
 20 23  1  0  0  0  0
 23 24  1  0  0  0  0
M  END
> <ConfClashScore>
0.0508721 

> <ConfOneFourInteractionScore>
-0.969113 

> <ConfScore>
5.89717 

> <ConfScorePBest>
0.0124205 

> <ConfTolerance>
0.25 

$$$$
L12.****
  PyMOL2.4          3D                             0

 24 24  0  0  0  0  0  0  0  0999 V2000
    0.0587   -0.7274    0.3633 C   0  0  0  1  0  0  0  0  0  0  0  0
   -0.1437   -1.2951    1.2474 H   0  0  0  1  0  0  0  0  0  0  0  0
    0.4666   -1.7473   -0.5422 O   0  0  0  1  0  0  0  0  0  0  0  0
    0.8539   -2.4757   -0.0512 H   0  0  0  1  0  0  0  0  0  0  0  0
   -0.6460   -0.4424    0.0410 C   0  0  0  1  0  0  0  0  0  0  0  0
   -0.9800   -1.0632   -0.7640 H   0  0  0  1  0  0  0  0  0  0  0  0
   -1.6152   -0.7211    1.0530 O   0  0  0  1  0  0  0  0  0  0  0  0
   -2.2265   -1.3899    0.7358 H   0  0  0  1  0  0  0  0  0  0  0  0
   -0.7190    0.3560   -0.1494 C   0  0  0  1  0  0  0  0  0  0  0  0
   -1.6180    0.7570    0.2699 H   0  0  0  1  0  0  0  0  0  0  0  0
    0.6173    0.5864    0.3045 C   0  0  0  1  0  0  0  0  0  0  0  0
    0.9494    1.2064    1.1109 H   0  0  0  1  0  0  0  0  0  0  0  0
    1.6288    0.7765   -0.6515 O   0  0  0  1  0  0  0  0  0  0  0  0
    1.7425    1.7155   -0.8153 H   0  0  0  1  0  0  0  0  0  0  0  0
    1.7609   -0.7088   -0.3011 O   0  0  0  1  0  0  0  0  0  0  0  0
    2.4745   -1.0035    0.2694 H   0  0  0  1  0  0  0  0  0  0  0  0
   -0.0874    0.8713   -0.0179 O   0  0  0  1  0  0  0  0  0  0  0  0
    0.6903   -0.2120    0.4949 C   0  0  0  1  0  0  0  0  0  0  0  0
    1.0781   -0.3326    1.4849 H   0  0  0  1  0  0  0  0  0  0  0  0
   -1.0181    0.4650   -1.6193 C   0  0  0  1  0  0  0  0  0  0  0  0
   -1.8904   -0.1155   -1.8361 H   0  0  0  1  0  0  0  0  0  0  0  0
   -0.1856    0.0776   -2.1687 H   0  0  0  1  0  0  0  0  0  0  0  0
   -1.2496    1.8055   -2.0278 O   0  0  0  1  0  0  0  0  0  0  0  0
   -0.5169    2.3577   -1.7451 H   0  0  0  1  0  0  0  0  0  0  0  0
  1  2  1  0  0  0  0
  1  3  1  0  0  0  0
  1  5  1  0  0  0  0
  1 18  1  0  0  0  0
  3  4  1  0  0  0  0
  5  6  1  0  0  0  0
  5  7  1  0  0  0  0
  5  9  1  0  0  0  0
  7  8  1  0  0  0  0
  9 10  1  0  0  0  0
  9 17  1  0  0  0  0
  9 20  1  0  0  0  0
 11 12  1  0  0  0  0
 11 13  1  0  0  0  0
 11 17  1  0  0  0  0
 11 18  1  0  0  0  0
 13 14  1  0  0  0  0
 15 16  1  0  0  0  0
 15 18  1  0  0  0  0
 18 19  1  0  0  0  0
 20 21  1  0  0  0  0
 20 22  1  0  0  0  0
 20 23  1  0  0  0  0
 23 24  1  0  0  0  0
M  END
> <ConfClashScore>
0.0523316 

> <ConfOneFourInteractionScore>
-0.951485 

> <ConfScore>
5.9013 

> <ConfScorePBest>
0.0123175 

> <ConfTolerance>
0.25 

$$$$
L12.****
  PyMOL2.4          3D                             0

 24 24  0  0  0  0  0  0  0  0999 V2000
    0.1094   -0.8137    0.1426 C   0  0  0  1  0  0  0  0  0  0  0  0
    0.1074   -1.6396   -0.5376 H   0  0  0  1  0  0  0  0  0  0  0  0
    0.4210   -1.4398    1.3826 O   0  0  0  1  0  0  0  0  0  0  0  0
    0.7462   -2.3283    1.2202 H   0  0  0  1  0  0  0  0  0  0  0  0
   -0.6407   -0.4766    0.2163 C   0  0  0  1  0  0  0  0  0  0  0  0
   -1.1845   -0.8994    1.0352 H   0  0  0  1  0  0  0  0  0  0  0  0
   -1.3860   -0.9353   -0.9131 O   0  0  0  1  0  0  0  0  0  0  0  0
   -2.2926   -1.1094   -0.6495 H   0  0  0  1  0  0  0  0  0  0  0  0
   -0.7300    0.3418    0.1818 C   0  0  0  1  0  0  0  0  0  0  0  0
   -1.4611    0.5812   -0.5619 H   0  0  0  1  0  0  0  0  0  0  0  0
    0.6808    0.4881   -0.0001 C   0  0  0  1  0  0  0  0  0  0  0  0
    1.3749    0.9701    0.6562 H   0  0  0  1  0  0  0  0  0  0  0  0
    1.1842    0.8382   -1.2619 O   0  0  0  1  0  0  0  0  0  0  0  0
    1.5700    1.7163   -1.2206 H   0  0  0  1  0  0  0  0  0  0  0  0
    1.6191   -0.5273    1.1601 O   0  0  0  1  0  0  0  0  0  0  0  0
    2.4575   -0.8932    0.8690 H   0  0  0  1  0  0  0  0  0  0  0  0
   -0.0694    0.8251    0.0736 O   0  0  0  1  0  0  0  0  0  0  0  0
    0.7701   -0.3304    0.0344 C   0  0  0  1  0  0  0  0  0  0  0  0
    1.3796   -0.6861   -0.7698 H   0  0  0  1  0  0  0  0  0  0  0  0
   -1.3889    0.9332    1.4055 C   0  0  0  1  0  0  0  0  0  0  0  0
   -1.4688    1.9938    1.2889 H   0  0  0  1  0  0  0  0  0  0  0  0
   -0.7976    0.7124    2.2695 H   0  0  0  1  0  0  0  0  0  0  0  0
   -2.6869    0.3765    1.5665 O   0  0  0  1  0  0  0  0  0  0  0  0
   -3.1767    0.8877    2.2148 H   0  0  0  1  0  0  0  0  0  0  0  0
  1  2  1  0  0  0  0
  1  3  1  0  0  0  0
  1  5  1  0  0  0  0
  1 18  1  0  0  0  0
  3  4  1  0  0  0  0
  5  6  1  0  0  0  0
  5  7  1  0  0  0  0
  5  9  1  0  0  0  0
  7  8  1  0  0  0  0
  9 10  1  0  0  0  0
  9 17  1  0  0  0  0
  9 20  1  0  0  0  0
 11 12  1  0  0  0  0
 11 13  1  0  0  0  0
 11 17  1  0  0  0  0
 11 18  1  0  0  0  0
 13 14  1  0  0  0  0
 15 16  1  0  0  0  0
 15 18  1  0  0  0  0
 18 19  1  0  0  0  0
 20 21  1  0  0  0  0
 20 22  1  0  0  0  0
 20 23  1  0  0  0  0
 23 24  1  0  0  0  0
M  END
> <ConfClashScore>
0.0509378 

> <ConfOneFourInteractionScore>
-0.942638 

> <ConfScore>
5.91519 

> <ConfScorePBest>
0.0122145 

> <ConfTolerance>
0.25 

$$$$
L12.****
  PyMOL2.4          3D                             0

 24 24  0  0  0  0  0  0  0  0999 V2000
    0.1417   -0.7992    0.2791 C   0  0  0  1  0  0  0  0  0  0  0  0
    0.2270   -1.7636   -0.1765 H   0  0  0  1  0  0  0  0  0  0  0  0
    0.2511   -1.1062    1.6649 O   0  0  0  1  0  0  0  0  0  0  0  0
   -0.0088   -2.0184    1.8125 H   0  0  0  1  0  0  0  0  0  0  0  0
   -0.6132   -0.4804    0.1782 C   0  0  0  1  0  0  0  0  0  0  0  0
   -1.2371   -0.6936    1.0209 H   0  0  0  1  0  0  0  0  0  0  0  0
   -1.2484   -1.2301   -0.8591 O   0  0  0  1  0  0  0  0  0  0  0  0
   -2.0767   -1.5898   -0.5334 H   0  0  0  1  0  0  0  0  0  0  0  0
   -0.7011    0.3016   -0.0664 C   0  0  0  1  0  0  0  0  0  0  0  0
   -1.3732    0.3547   -0.8972 H   0  0  0  1  0  0  0  0  0  0  0  0
    0.7208    0.4478   -0.1097 C   0  0  0  1  0  0  0  0  0  0  0  0
    1.3128    0.6271   -0.9827 H   0  0  0  1  0  0  0  0  0  0  0  0
    1.3944    1.2250    0.8523 O   0  0  0  1  0  0  0  0  0  0  0  0
    1.8237    1.9675    0.4210 H   0  0  0  1  0  0  0  0  0  0  0  0
    1.4494   -1.0079   -0.9432 O   0  0  0  1  0  0  0  0  0  0  0  0
    2.3616   -0.7155   -1.0069 H   0  0  0  1  0  0  0  0  0  0  0  0
   -0.0342    0.7666   -0.2106 O   0  0  0  1  0  0  0  0  0  0  0  0
    0.8086   -0.3342    0.1349 C   0  0  0  1  0  0  0  0  0  0  0  0
    1.5291   -0.4237    0.9209 H   0  0  0  1  0  0  0  0  0  0  0  0
   -1.4606    1.0873    0.9639 C   0  0  0  1  0  0  0  0  0  0  0  0
   -1.4992    2.1110    0.6552 H   0  0  0  1  0  0  0  0  0  0  0  0
   -0.9454    1.0153    1.8990 H   0  0  0  1  0  0  0  0  0  0  0  0
   -2.7893    0.6128    1.1376 O   0  0  0  1  0  0  0  0  0  0  0  0
   -3.2876    0.7524    0.3290 H   0  0  0  1  0  0  0  0  0  0  0  0
  1  2  1  0  0  0  0
  1  3  1  0  0  0  0
  1  5  1  0  0  0  0
  1 18  1  0  0  0  0
  3  4  1  0  0  0  0
  5  6  1  0  0  0  0
  5  7  1  0  0  0  0
  5  9  1  0  0  0  0
  7  8  1  0  0  0  0
  9 10  1  0  0  0  0
  9 17  1  0  0  0  0
  9 20  1  0  0  0  0
 11 12  1  0  0  0  0
 11 13  1  0  0  0  0
 11 17  1  0  0  0  0
 11 18  1  0  0  0  0
 13 14  1  0  0  0  0
 15 16  1  0  0  0  0
 15 18  1  0  0  0  0
 18 19  1  0  0  0  0
 20 21  1  0  0  0  0
 20 22  1  0  0  0  0
 20 23  1  0  0  0  0
 23 24  1  0  0  0  0
M  END
> <ConfClashScore>
0.0509098 

> <ConfOneFourInteractionScore>
-0.95019 

> <ConfScore>
5.91789 

> <ConfScorePBest>
0.0121115 

> <ConfTolerance>
0.25 

$$$$
L12.****
  PyMOL2.4          3D                             0

 24 24  0  0  0  0  0  0  0  0999 V2000
    0.1358   -0.6942    0.4816 C   0  0  0  1  0  0  0  0  0  0  0  0
    0.1824   -0.9710    1.5142 H   0  0  0  1  0  0  0  0  0  0  0  0
    0.1539   -1.9673   -0.1551 O   0  0  0  1  0  0  0  0  0  0  0  0
    0.0678   -2.6577    0.5064 H   0  0  0  1  0  0  0  0  0  0  0  0
   -0.6107   -0.3903    0.3023 C   0  0  0  1  0  0  0  0  0  0  0  0
   -1.2389   -0.4076    1.1683 H   0  0  0  1  0  0  0  0  0  0  0  0
   -1.2690   -1.3287   -0.5500 O   0  0  0  1  0  0  0  0  0  0  0  0
   -2.0275   -1.6996   -0.0930 H   0  0  0  1  0  0  0  0  0  0  0  0
   -0.6787    0.3318   -0.0887 C   0  0  0  1  0  0  0  0  0  0  0  0
   -1.2625    0.1769   -0.9720 H   0  0  0  1  0  0  0  0  0  0  0  0
    0.7461    0.4480   -0.1220 C   0  0  0  1  0  0  0  0  0  0  0  0
    1.3785    0.4703   -0.9848 H   0  0  0  1  0  0  0  0  0  0  0  0
    1.3865    1.3546    0.7306 O   0  0  0  1  0  0  0  0  0  0  0  0
    1.5014    2.1935    0.2782 H   0  0  0  1  0  0  0  0  0  0  0  0
    1.5766   -1.1107   -0.5944 O   0  0  0  1  0  0  0  0  0  0  0  0
    2.4778   -0.7837   -0.6438 H   0  0  0  1  0  0  0  0  0  0  0  0
   -0.0004    0.7518   -0.3013 O   0  0  0  1  0  0  0  0  0  0  0  0
    0.8141   -0.2742    0.2690 C   0  0  0  1  0  0  0  0  0  0  0  0
    1.4693   -0.1800    1.1098 H   0  0  0  1  0  0  0  0  0  0  0  0
   -1.5353    1.3532    0.6076 C   0  0  0  1  0  0  0  0  0  0  0  0
   -1.6606    2.2123   -0.0178 H   0  0  0  1  0  0  0  0  0  0  0  0
   -1.0778    1.6462    1.5295 H   0  0  0  1  0  0  0  0  0  0  0  0
   -2.7971    0.7502    0.8622 O   0  0  0  1  0  0  0  0  0  0  0  0
   -3.0717    0.2449    0.0935 H   0  0  0  1  0  0  0  0  0  0  0  0
  1  2  1  0  0  0  0
  1  3  1  0  0  0  0
  1  5  1  0  0  0  0
  1 18  1  0  0  0  0
  3  4  1  0  0  0  0
  5  6  1  0  0  0  0
  5  7  1  0  0  0  0
  5  9  1  0  0  0  0
  7  8  1  0  0  0  0
  9 10  1  0  0  0  0
  9 17  1  0  0  0  0
  9 20  1  0  0  0  0
 11 12  1  0  0  0  0
 11 13  1  0  0  0  0
 11 17  1  0  0  0  0
 11 18  1  0  0  0  0
 13 14  1  0  0  0  0
 15 16  1  0  0  0  0
 15 18  1  0  0  0  0
 18 19  1  0  0  0  0
 20 21  1  0  0  0  0
 20 22  1  0  0  0  0
 20 23  1  0  0  0  0
 23 24  1  0  0  0  0
M  END
> <ConfClashScore>
0.0508205 

> <ConfOneFourInteractionScore>
-0.942638 

> <ConfScore>
5.92731 

> <ConfScorePBest>
0.0120085 

> <ConfTolerance>
0.25 

$$$$
L12.****
  PyMOL2.4          3D                             0

 24 24  0  0  0  0  0  0  0  0999 V2000
    0.1002   -0.6694    0.4732 C   0  0  0  1  0  0  0  0  0  0  0  0
    0.1715   -0.9183    1.5115 H   0  0  0  1  0  0  0  0  0  0  0  0
    0.0545   -1.9582   -0.1298 O   0  0  0  1  0  0  0  0  0  0  0  0
    0.5504   -2.5809    0.4069 H   0  0  0  1  0  0  0  0  0  0  0  0
   -0.6355   -0.3333    0.3071 C   0  0  0  1  0  0  0  0  0  0  0  0
   -1.2672   -0.3202    1.1706 H   0  0  0  1  0  0  0  0  0  0  0  0
   -1.3049   -1.2639   -0.5457 O   0  0  0  1  0  0  0  0  0  0  0  0
   -1.9030   -1.8039   -0.0238 H   0  0  0  1  0  0  0  0  0  0  0  0
   -0.6799    0.3740   -0.1134 C   0  0  0  1  0  0  0  0  0  0  0  0
   -1.3717    0.2807   -0.9244 H   0  0  0  1  0  0  0  0  0  0  0  0
    0.7468    0.4107   -0.2025 C   0  0  0  1  0  0  0  0  0  0  0  0
    1.3758    0.3944   -1.0680 H   0  0  0  1  0  0  0  0  0  0  0  0
    1.4275    1.3044    0.6501 O   0  0  0  1  0  0  0  0  0  0  0  0
    1.0863    2.1925    0.5217 H   0  0  0  1  0  0  0  0  0  0  0  0
    1.5158   -1.1731   -0.6384 O   0  0  0  1  0  0  0  0  0  0  0  0
    2.4579   -1.0408   -0.5096 H   0  0  0  1  0  0  0  0  0  0  0  0
    0.0112    0.7468   -0.3687 O   0  0  0  1  0  0  0  0  0  0  0  0
    0.7913   -0.2966    0.2179 C   0  0  0  1  0  0  0  0  0  0  0  0
    1.4718   -0.1916    1.0369 H   0  0  0  1  0  0  0  0  0  0  0  0
   -1.3317    1.4616    0.6912 C   0  0  0  1  0  0  0  0  0  0  0  0
   -2.3230    1.1605    0.9588 H   0  0  0  1  0  0  0  0  0  0  0  0
   -1.3757    2.3576    0.1081 H   0  0  0  1  0  0  0  0  0  0  0  0
   -0.5748    1.7028    1.8735 O   0  0  0  1  0  0  0  0  0  0  0  0
   -0.4651    0.8807    2.3570 H   0  0  0  1  0  0  0  0  0  0  0  0
  1  2  1  0  0  0  0
  1  3  1  0  0  0  0
  1  5  1  0  0  0  0
  1 18  1  0  0  0  0
  3  4  1  0  0  0  0
  5  6  1  0  0  0  0
  5  7  1  0  0  0  0
  5  9  1  0  0  0  0
  7  8  1  0  0  0  0
  9 10  1  0  0  0  0
  9 17  1  0  0  0  0
  9 20  1  0  0  0  0
 11 12  1  0  0  0  0
 11 13  1  0  0  0  0
 11 17  1  0  0  0  0
 11 18  1  0  0  0  0
 13 14  1  0  0  0  0
 15 16  1  0  0  0  0
 15 18  1  0  0  0  0
 18 19  1  0  0  0  0
 20 21  1  0  0  0  0
 20 22  1  0  0  0  0
 20 23  1  0  0  0  0
 23 24  1  0  0  0  0
M  END
> <ConfClashScore>
0.0525703 

> <ConfOneFourInteractionScore>
-0.971319 

> <ConfScore>
5.94035 

> <ConfScorePBest>
0.0119055 

> <ConfTolerance>
0.25 

$$$$
L12.****
  PyMOL2.4          3D                             0

 24 24  0  0  0  0  0  0  0  0999 V2000
    0.1343   -0.8504    0.3040 C   0  0  0  1  0  0  0  0  0  0  0  0
    0.2654   -1.2328    1.2947 H   0  0  0  1  0  0  0  0  0  0  0  0
    0.1229   -2.0387   -0.4799 O   0  0  0  1  0  0  0  0  0  0  0  0
   -0.2274   -1.8438   -1.3522 H   0  0  0  1  0  0  0  0  0  0  0  0
   -0.6127   -0.5122    0.2067 C   0  0  0  1  0  0  0  0  0  0  0  0
   -1.3111   -1.2150   -0.1971 H   0  0  0  1  0  0  0  0  0  0  0  0
   -1.1183   -0.3085    1.5274 O   0  0  0  1  0  0  0  0  0  0  0  0
   -1.8835   -0.8710    1.6679 H   0  0  0  1  0  0  0  0  0  0  0  0
   -0.6872    0.2269   -0.1498 C   0  0  0  1  0  0  0  0  0  0  0  0
   -1.2694    0.8700    0.4767 H   0  0  0  1  0  0  0  0  0  0  0  0
    0.7320    0.2915   -0.3126 C   0  0  0  1  0  0  0  0  0  0  0  0
    1.3236    0.3684   -1.2008 H   0  0  0  1  0  0  0  0  0  0  0  0
    1.3719    1.1643    0.5600 O   0  0  0  1  0  0  0  0  0  0  0  0
    1.6943    1.9258    0.0724 H   0  0  0  1  0  0  0  0  0  0  0  0
    1.5541   -0.2256    1.2350 O   0  0  0  1  0  0  0  0  0  0  0  0
    2.4802   -0.4197    1.0729 H   0  0  0  1  0  0  0  0  0  0  0  0
   -0.0149    0.6297   -0.4099 O   0  0  0  1  0  0  0  0  0  0  0  0
    0.8066   -0.4476    0.0440 C   0  0  0  1  0  0  0  0  0  0  0  0
    1.4554   -1.0891   -0.5150 H   0  0  0  1  0  0  0  0  0  0  0  0
   -1.5494    0.1927   -1.3816 C   0  0  0  1  0  0  0  0  0  0  0  0
   -1.2412   -0.6291   -1.9936 H   0  0  0  1  0  0  0  0  0  0  0  0
   -1.4164    1.1081   -1.9193 H   0  0  0  1  0  0  0  0  0  0  0  0
   -2.9290    0.0404   -1.0744 O   0  0  0  1  0  0  0  0  0  0  0  0
   -3.3087    0.8984   -0.8716 H   0  0  0  1  0  0  0  0  0  0  0  0
  1  2  1  0  0  0  0
  1  3  1  0  0  0  0
  1  5  1  0  0  0  0
  1 18  1  0  0  0  0
  3  4  1  0  0  0  0
  5  6  1  0  0  0  0
  5  7  1  0  0  0  0
  5  9  1  0  0  0  0
  7  8  1  0  0  0  0
  9 10  1  0  0  0  0
  9 17  1  0  0  0  0
  9 20  1  0  0  0  0
 11 12  1  0  0  0  0
 11 13  1  0  0  0  0
 11 17  1  0  0  0  0
 11 18  1  0  0  0  0
 13 14  1  0  0  0  0
 15 16  1  0  0  0  0
 15 18  1  0  0  0  0
 18 19  1  0  0  0  0
 20 21  1  0  0  0  0
 20 22  1  0  0  0  0
 20 23  1  0  0  0  0
 23 24  1  0  0  0  0
M  END
> <ConfClashScore>
0.050081 

> <ConfOneFourInteractionScore>
-0.95019 

> <ConfScore>
5.95359 

> <ConfScorePBest>
0.0118025 

> <ConfTolerance>
0.25 

$$$$
L12.****
  PyMOL2.4          3D                             0

 24 24  0  0  0  0  0  0  0  0999 V2000
    0.1046   -0.7442   -0.1424 C   0  0  0  1  0  0  0  0  0  0  0  0
    0.0093   -1.4393   -0.9503 H   0  0  0  1  0  0  0  0  0  0  0  0
    0.3951   -1.6127    0.9427 O   0  0  0  1  0  0  0  0  0  0  0  0
    0.1250   -2.5064    0.7190 H   0  0  0  1  0  0  0  0  0  0  0  0
   -0.6341   -0.4246    0.0419 C   0  0  0  1  0  0  0  0  0  0  0  0
   -1.3981   -0.8587   -0.5686 H   0  0  0  1  0  0  0  0  0  0  0  0
   -0.9632   -0.9396    1.3329 O   0  0  0  1  0  0  0  0  0  0  0  0
   -1.6885   -1.5635    1.2537 H   0  0  0  1  0  0  0  0  0  0  0  0
   -0.7288    0.3924    0.0925 C   0  0  0  1  0  0  0  0  0  0  0  0
   -1.2152    0.6531    1.0091 H   0  0  0  1  0  0  0  0  0  0  0  0
    0.6538    0.5722   -0.2254 C   0  0  0  1  0  0  0  0  0  0  0  0
    1.1106    1.0777   -1.0505 H   0  0  0  1  0  0  0  0  0  0  0  0
    1.4259    0.9832    0.8515 O   0  0  0  1  0  0  0  0  0  0  0  0
    1.8181    1.8376    0.6570 H   0  0  0  1  0  0  0  0  0  0  0  0
    1.7662   -0.5947    0.6560 O   0  0  0  1  0  0  0  0  0  0  0  0
    2.3298   -1.2723    0.2755 H   0  0  0  1  0  0  0  0  0  0  0  0
   -0.0849    0.8918   -0.0411 O   0  0  0  1  0  0  0  0  0  0  0  0
    0.7485   -0.2447   -0.2760 C   0  0  0  1  0  0  0  0  0  0  0  0
    1.2171   -0.4987   -1.2038 H   0  0  0  1  0  0  0  0  0  0  0  0
   -1.7244    0.9063   -0.9108 C   0  0  0  1  0  0  0  0  0  0  0  0
   -2.5724    0.2538   -0.9181 H   0  0  0  1  0  0  0  0  0  0  0  0
   -1.2670    0.9085   -1.8781 H   0  0  0  1  0  0  0  0  0  0  0  0
   -2.1654    2.2241   -0.6118 O   0  0  0  1  0  0  0  0  0  0  0  0
   -1.9240    2.4458    0.2905 H   0  0  0  1  0  0  0  0  0  0  0  0
  1  2  1  0  0  0  0
  1  3  1  0  0  0  0
  1  5  1  0  0  0  0
  1 18  1  0  0  0  0
  3  4  1  0  0  0  0
  5  6  1  0  0  0  0
  5  7  1  0  0  0  0
  5  9  1  0  0  0  0
  7  8  1  0  0  0  0
  9 10  1  0  0  0  0
  9 17  1  0  0  0  0
  9 20  1  0  0  0  0
 11 12  1  0  0  0  0
 11 13  1  0  0  0  0
 11 17  1  0  0  0  0
 11 18  1  0  0  0  0
 13 14  1  0  0  0  0
 15 16  1  0  0  0  0
 15 18  1  0  0  0  0
 18 19  1  0  0  0  0
 20 21  1  0  0  0  0
 20 22  1  0  0  0  0
 20 23  1  0  0  0  0
 23 24  1  0  0  0  0
M  END
> <ConfClashScore>
0.0528979 

> <ConfOneFourInteractionScore>
-0.95019 

> <ConfScore>
5.99255 

> <ConfScorePBest>
0.0116995 

> <ConfTolerance>
0.25 

$$$$
L12.****
  PyMOL2.4          3D                             0

 24 24  0  0  0  0  0  0  0  0999 V2000
    0.0924   -0.6893    0.3598 C   0  0  0  1  0  0  0  0  0  0  0  0
    0.3198   -1.0243    1.3502 H   0  0  0  1  0  0  0  0  0  0  0  0
    0.0079   -1.9125   -0.3636 O   0  0  0  1  0  0  0  0  0  0  0  0
    0.5466   -2.5787    0.0693 H   0  0  0  1  0  0  0  0  0  0  0  0
   -0.6399   -0.3093    0.3273 C   0  0  0  1  0  0  0  0  0  0  0  0
   -1.1134   -0.2825    1.2865 H   0  0  0  1  0  0  0  0  0  0  0  0
   -1.4355   -1.2634   -0.3784 O   0  0  0  1  0  0  0  0  0  0  0  0
   -1.8943   -1.8256    0.2501 H   0  0  0  1  0  0  0  0  0  0  0  0
   -0.7142    0.4092   -0.0691 C   0  0  0  1  0  0  0  0  0  0  0  0
   -1.5584    0.4016   -0.7266 H   0  0  0  1  0  0  0  0  0  0  0  0
    0.6760    0.3695   -0.4016 C   0  0  0  1  0  0  0  0  0  0  0  0
    1.1310    0.3259   -1.3691 H   0  0  0  1  0  0  0  0  0  0  0  0
    1.5482    1.2131    0.2996 O   0  0  0  1  0  0  0  0  0  0  0  0
    1.5023    2.0987   -0.0682 H   0  0  0  1  0  0  0  0  0  0  0  0
    1.7843   -0.1521    0.9533 O   0  0  0  1  0  0  0  0  0  0  0  0
    2.2275   -0.9867    1.1226 H   0  0  0  1  0  0  0  0  0  0  0  0
   -0.0564    0.7495   -0.4341 O   0  0  0  1  0  0  0  0  0  0  0  0
    0.7503   -0.3490   -0.0052 C   0  0  0  1  0  0  0  0  0  0  0  0
    1.2061   -1.0671   -0.6544 H   0  0  0  1  0  0  0  0  0  0  0  0
   -1.1135    1.4882    0.9146 C   0  0  0  1  0  0  0  0  0  0  0  0
   -2.0220    1.1937    1.3971 H   0  0  0  1  0  0  0  0  0  0  0  0
   -1.2733    2.4000    0.3780 H   0  0  0  1  0  0  0  0  0  0  0  0
   -0.1212    1.7114    1.9078 O   0  0  0  1  0  0  0  0  0  0  0  0
   -0.2883    1.1409    2.6616 H   0  0  0  1  0  0  0  0  0  0  0  0
  1  2  1  0  0  0  0
  1  3  1  0  0  0  0
  1  5  1  0  0  0  0
  1 18  1  0  0  0  0
  3  4  1  0  0  0  0
  5  6  1  0  0  0  0
  5  7  1  0  0  0  0
  5  9  1  0  0  0  0
  7  8  1  0  0  0  0
  9 10  1  0  0  0  0
  9 17  1  0  0  0  0
  9 20  1  0  0  0  0
 11 12  1  0  0  0  0
 11 13  1  0  0  0  0
 11 17  1  0  0  0  0
 11 18  1  0  0  0  0
 13 14  1  0  0  0  0
 15 16  1  0  0  0  0
 15 18  1  0  0  0  0
 18 19  1  0  0  0  0
 20 21  1  0  0  0  0
 20 22  1  0  0  0  0
 20 23  1  0  0  0  0
 23 24  1  0  0  0  0
M  END
> <ConfClashScore>
0.0532903 

> <ConfOneFourInteractionScore>
-0.951485 

> <ConfScore>
6.01223 

> <ConfScorePBest>
0.0115965 

> <ConfTolerance>
0.25 

$$$$
L12.****
  PyMOL2.4          3D                             0

 24 24  0  0  0  0  0  0  0  0999 V2000
    0.0914   -0.8164    0.1904 C   0  0  0  1  0  0  0  0  0  0  0  0
   -0.0199   -1.7737   -0.2744 H   0  0  0  1  0  0  0  0  0  0  0  0
    0.5327   -1.1625    1.4989 O   0  0  0  1  0  0  0  0  0  0  0  0
    0.2249   -2.0450    1.7179 H   0  0  0  1  0  0  0  0  0  0  0  0
   -0.6401   -0.4657    0.3447 C   0  0  0  1  0  0  0  0  0  0  0  0
   -0.9630   -0.6720    1.3437 H   0  0  0  1  0  0  0  0  0  0  0  0
   -1.6122   -1.1672   -0.4327 O   0  0  0  1  0  0  0  0  0  0  0  0
   -1.4376   -1.0272   -1.3663 H   0  0  0  1  0  0  0  0  0  0  0  0
   -0.7681    0.3242    0.1480 C   0  0  0  1  0  0  0  0  0  0  0  0
   -1.6382    0.3841   -0.4717 H   0  0  0  1  0  0  0  0  0  0  0  0
    0.5665    0.4146   -0.3576 C   0  0  0  1  0  0  0  0  0  0  0  0
    0.8480    0.5889   -1.3750 H   0  0  0  1  0  0  0  0  0  0  0  0
    1.5518    1.1437    0.3364 O   0  0  0  1  0  0  0  0  0  0  0  0
    2.0110    1.7243   -0.2749 H   0  0  0  1  0  0  0  0  0  0  0  0
    1.7671   -0.3180    0.7734 O   0  0  0  1  0  0  0  0  0  0  0  0
    2.3420   -1.0767    0.6482 H   0  0  0  1  0  0  0  0  0  0  0  0
   -0.1649    0.7653   -0.2033 O   0  0  0  1  0  0  0  0  0  0  0  0
    0.6945   -0.3753   -0.1609 C   0  0  0  1  0  0  0  0  0  0  0  0
    1.1368   -0.9089   -0.9761 H   0  0  0  1  0  0  0  0  0  0  0  0
   -1.2558    1.0786    1.3542 C   0  0  0  1  0  0  0  0  0  0  0  0
   -1.1845    2.1275    1.1551 H   0  0  0  1  0  0  0  0  0  0  0  0
   -0.6340    0.8304    2.1889 H   0  0  0  1  0  0  0  0  0  0  0  0
   -2.6037    0.7669    1.6809 O   0  0  0  1  0  0  0  0  0  0  0  0
   -3.1540    1.5414    1.5436 H   0  0  0  1  0  0  0  0  0  0  0  0
  1  2  1  0  0  0  0
  1  3  1  0  0  0  0
  1  5  1  0  0  0  0
  1 18  1  0  0  0  0
  3  4  1  0  0  0  0
  5  6  1  0  0  0  0
  5  7  1  0  0  0  0
  5  9  1  0  0  0  0
  7  8  1  0  0  0  0
  9 10  1  0  0  0  0
  9 17  1  0  0  0  0
  9 20  1  0  0  0  0
 11 12  1  0  0  0  0
 11 13  1  0  0  0  0
 11 17  1  0  0  0  0
 11 18  1  0  0  0  0
 13 14  1  0  0  0  0
 15 16  1  0  0  0  0
 15 18  1  0  0  0  0
 18 19  1  0  0  0  0
 20 21  1  0  0  0  0
 20 22  1  0  0  0  0
 20 23  1  0  0  0  0
 23 24  1  0  0  0  0
M  END
> <ConfClashScore>
0.0508813 

> <ConfOneFourInteractionScore>
-0.922804 

> <ConfScore>
6.03647 

> <ConfScorePBest>
0.0114935 

> <ConfTolerance>
0.25 

$$$$
L12.****
  PyMOL2.4          3D                             0

 24 24  0  0  0  0  0  0  0  0999 V2000
    0.0258   -0.6260    0.5713 C   0  0  0  1  0  0  0  0  0  0  0  0
   -0.0395   -0.9601    1.5857 H   0  0  0  1  0  0  0  0  0  0  0  0
    0.3194   -1.8367   -0.1176 O   0  0  0  1  0  0  0  0  0  0  0  0
    0.8154   -2.4217    0.4598 H   0  0  0  1  0  0  0  0  0  0  0  0
   -0.7141   -0.3867    0.2935 C   0  0  0  1  0  0  0  0  0  0  0  0
   -1.4635   -0.5088    1.0474 H   0  0  0  1  0  0  0  0  0  0  0  0
   -1.0699   -1.4044   -0.6440 O   0  0  0  1  0  0  0  0  0  0  0  0
   -2.0145   -1.5687   -0.5955 H   0  0  0  1  0  0  0  0  0  0  0  0
   -0.7958    0.3384   -0.0894 C   0  0  0  1  0  0  0  0  0  0  0  0
   -1.2499    0.1694   -1.0434 H   0  0  0  1  0  0  0  0  0  0  0  0
    0.6019    0.5866    0.0823 C   0  0  0  1  0  0  0  0  0  0  0  0
    1.0763    1.3700    0.6357 H   0  0  0  1  0  0  0  0  0  0  0  0
    1.4499    0.4536   -1.0296 O   0  0  0  1  0  0  0  0  0  0  0  0
    2.2057    1.0368   -0.9278 H   0  0  0  1  0  0  0  0  0  0  0  0
    1.7050   -0.8778   -0.1957 O   0  0  0  1  0  0  0  0  0  0  0  0
    2.5551   -0.6762    0.2021 H   0  0  0  1  0  0  0  0  0  0  0  0
   -0.1379    0.8259   -0.1954 O   0  0  0  1  0  0  0  0  0  0  0  0
    0.6837   -0.1384    0.4652 C   0  0  0  1  0  0  0  0  0  0  0  0
    1.1433    0.0271    1.4172 H   0  0  0  1  0  0  0  0  0  0  0  0
   -1.8296    1.2125    0.5413 C   0  0  0  1  0  0  0  0  0  0  0  0
   -1.4677    1.5684    1.4833 H   0  0  0  1  0  0  0  0  0  0  0  0
   -2.7268    0.6495    0.6930 H   0  0  0  1  0  0  0  0  0  0  0  0
   -2.1044    2.3210   -0.3098 O   0  0  0  1  0  0  0  0  0  0  0  0
   -2.3903    3.0687    0.2201 H   0  0  0  1  0  0  0  0  0  0  0  0
  1  2  1  0  0  0  0
  1  3  1  0  0  0  0
  1  5  1  0  0  0  0
  1 18  1  0  0  0  0
  3  4  1  0  0  0  0
  5  6  1  0  0  0  0
  5  7  1  0  0  0  0
  5  9  1  0  0  0  0
  7  8  1  0  0  0  0
  9 10  1  0  0  0  0
  9 17  1  0  0  0  0
  9 20  1  0  0  0  0
 11 12  1  0  0  0  0
 11 13  1  0  0  0  0
 11 17  1  0  0  0  0
 11 18  1  0  0  0  0
 13 14  1  0  0  0  0
 15 16  1  0  0  0  0
 15 18  1  0  0  0  0
 18 19  1  0  0  0  0
 20 21  1  0  0  0  0
 20 22  1  0  0  0  0
 20 23  1  0  0  0  0
 23 24  1  0  0  0  0
M  END
> <ConfClashScore>
0.0541176 

> <ConfOneFourInteractionScore>
-0.95019 

> <ConfScore>
6.07388 

> <ConfScorePBest>
0.0113905 

> <ConfTolerance>
0.25 

$$$$
L12.****
  PyMOL2.4          3D                             0

 24 24  0  0  0  0  0  0  0  0999 V2000
    0.0991   -0.7396    0.3464 C   0  0  0  1  0  0  0  0  0  0  0  0
    0.2965   -1.0218    1.3595 H   0  0  0  1  0  0  0  0  0  0  0  0
   -0.0840   -2.0088   -0.2718 O   0  0  0  1  0  0  0  0  0  0  0  0
    0.3703   -2.6827    0.2393 H   0  0  0  1  0  0  0  0  0  0  0  0
   -0.6422   -0.3801    0.2908 C   0  0  0  1  0  0  0  0  0  0  0  0
   -1.0949   -0.3321    1.2591 H   0  0  0  1  0  0  0  0  0  0  0  0
   -1.5150   -1.2901   -0.3811 O   0  0  0  1  0  0  0  0  0  0  0  0
   -2.1214   -1.6797    0.2530 H   0  0  0  1  0  0  0  0  0  0  0  0
   -0.7205    0.3461   -0.0906 C   0  0  0  1  0  0  0  0  0  0  0  0
   -1.5369    0.3348   -0.7821 H   0  0  0  1  0  0  0  0  0  0  0  0
    0.6836    0.3551   -0.3617 C   0  0  0  1  0  0  0  0  0  0  0  0
    1.2079    0.3756   -1.2942 H   0  0  0  1  0  0  0  0  0  0  0  0
    1.4150    1.2400    0.4223 O   0  0  0  1  0  0  0  0  0  0  0  0
    1.7639    1.9439   -0.1294 H   0  0  0  1  0  0  0  0  0  0  0  0
    1.7156   -0.2277    1.0669 O   0  0  0  1  0  0  0  0  0  0  0  0
    2.6001   -0.3472    0.7134 H   0  0  0  1  0  0  0  0  0  0  0  0
   -0.0577    0.7146   -0.4173 O   0  0  0  1  0  0  0  0  0  0  0  0
    0.7619   -0.3711    0.0197 C   0  0  0  1  0  0  0  0  0  0  0  0
    1.2673   -1.0585   -0.6259 H   0  0  0  1  0  0  0  0  0  0  0  0
   -1.1416    1.4444    0.8465 C   0  0  0  1  0  0  0  0  0  0  0  0
   -1.1177    2.3746    0.3182 H   0  0  0  1  0  0  0  0  0  0  0  0
   -0.4529    1.4805    1.6646 H   0  0  0  1  0  0  0  0  0  0  0  0
   -2.4542    1.2456    1.3626 O   0  0  0  1  0  0  0  0  0  0  0  0
   -2.4053    1.0764    2.3063 H   0  0  0  1  0  0  0  0  0  0  0  0
  1  2  1  0  0  0  0
  1  3  1  0  0  0  0
  1  5  1  0  0  0  0
  1 18  1  0  0  0  0
  3  4  1  0  0  0  0
  5  6  1  0  0  0  0
  5  7  1  0  0  0  0
  5  9  1  0  0  0  0
  7  8  1  0  0  0  0
  9 10  1  0  0  0  0
  9 17  1  0  0  0  0
  9 20  1  0  0  0  0
 11 12  1  0  0  0  0
 11 13  1  0  0  0  0
 11 17  1  0  0  0  0
 11 18  1  0  0  0  0
 13 14  1  0  0  0  0
 15 16  1  0  0  0  0
 15 18  1  0  0  0  0
 18 19  1  0  0  0  0
 20 21  1  0  0  0  0
 20 22  1  0  0  0  0
 20 23  1  0  0  0  0
 23 24  1  0  0  0  0
M  END
> <ConfClashScore>
0.0528152 

> <ConfOneFourInteractionScore>
-0.942638 

> <ConfScore>
6.09051 

> <ConfScorePBest>
0.0112875 

> <ConfTolerance>
0.25 

$$$$
L12.****
  PyMOL2.4          3D                             0

 24 24  0  0  0  0  0  0  0  0999 V2000
    0.1521   -0.7073   -0.0927 C   0  0  0  1  0  0  0  0  0  0  0  0
    0.2915   -1.1397   -1.0615 H   0  0  0  1  0  0  0  0  0  0  0  0
    0.2677   -1.8626    0.7311 O   0  0  0  1  0  0  0  0  0  0  0  0
    0.0001   -2.6389    0.2337 H   0  0  0  1  0  0  0  0  0  0  0  0
   -0.6227   -0.4274   -0.0375 C   0  0  0  1  0  0  0  0  0  0  0  0
   -1.2089   -0.7199   -0.8835 H   0  0  0  1  0  0  0  0  0  0  0  0
   -1.1836   -1.2204    1.0103 O   0  0  0  1  0  0  0  0  0  0  0  0
   -2.0289   -1.5757    0.7259 H   0  0  0  1  0  0  0  0  0  0  0  0
   -0.7637    0.3564    0.1742 C   0  0  0  1  0  0  0  0  0  0  0  0
   -1.4809    0.4037    0.9668 H   0  0  0  1  0  0  0  0  0  0  0  0
    0.6447    0.5822    0.2760 C   0  0  0  1  0  0  0  0  0  0  0  0
    1.2386    0.8834    1.1135 H   0  0  0  1  0  0  0  0  0  0  0  0
    1.1832    1.3407   -0.7723 O   0  0  0  1  0  0  0  0  0  0  0  0
    2.1362    1.3963   -0.6709 H   0  0  0  1  0  0  0  0  0  0  0  0
    1.5456   -0.7778    1.1212 O   0  0  0  1  0  0  0  0  0  0  0  0
    2.4810   -0.7145    0.9148 H   0  0  0  1  0  0  0  0  0  0  0  0
   -0.1302    0.8621    0.3311 O   0  0  0  1  0  0  0  0  0  0  0  0
    0.7857   -0.2016    0.0643 C   0  0  0  1  0  0  0  0  0  0  0  0
    1.4870   -0.2387   -0.7429 H   0  0  0  1  0  0  0  0  0  0  0  0
   -1.5274    1.0147   -0.9387 C   0  0  0  1  0  0  0  0  0  0  0  0
   -2.3416    0.3854   -1.2320 H   0  0  0  1  0  0  0  0  0  0  0  0
   -0.8766    1.1692   -1.7738 H   0  0  0  1  0  0  0  0  0  0  0  0
   -2.0338    2.2670   -0.4962 O   0  0  0  1  0  0  0  0  0  0  0  0
   -2.1795    2.2368    0.4522 H   0  0  0  1  0  0  0  0  0  0  0  0
  1  2  1  0  0  0  0
  1  3  1  0  0  0  0
  1  5  1  0  0  0  0
  1 18  1  0  0  0  0
  3  4  1  0  0  0  0
  5  6  1  0  0  0  0
  5  7  1  0  0  0  0
  5  9  1  0  0  0  0
  7  8  1  0  0  0  0
  9 10  1  0  0  0  0
  9 17  1  0  0  0  0
  9 20  1  0  0  0  0
 11 12  1  0  0  0  0
 11 13  1  0  0  0  0
 11 17  1  0  0  0  0
 11 18  1  0  0  0  0
 13 14  1  0  0  0  0
 15 16  1  0  0  0  0
 15 18  1  0  0  0  0
 18 19  1  0  0  0  0
 20 21  1  0  0  0  0
 20 22  1  0  0  0  0
 20 23  1  0  0  0  0
 23 24  1  0  0  0  0
M  END
> <ConfClashScore>
0.0543833 

> <ConfOneFourInteractionScore>
-0.95019 

> <ConfScore>
6.09621 

> <ConfScorePBest>
0.0111845 

> <ConfTolerance>
0.25 

$$$$
L12.****
  PyMOL2.4          3D                             0

 24 24  0  0  0  0  0  0  0  0999 V2000
    0.1687   -0.7546   -0.0230 C   0  0  0  1  0  0  0  0  0  0  0  0
    0.2226   -1.5761   -0.7066 H   0  0  0  1  0  0  0  0  0  0  0  0
    0.3960   -1.3951    1.2279 O   0  0  0  1  0  0  0  0  0  0  0  0
    0.3566   -2.3473    1.1122 H   0  0  0  1  0  0  0  0  0  0  0  0
   -0.5859   -0.4194   -0.0219 C   0  0  0  1  0  0  0  0  0  0  0  0
   -1.2504   -0.9415   -0.6782 H   0  0  0  1  0  0  0  0  0  0  0  0
   -1.1858   -0.6388    1.2561 O   0  0  0  1  0  0  0  0  0  0  0  0
   -1.7378   -1.4234    1.2206 H   0  0  0  1  0  0  0  0  0  0  0  0
   -0.6742    0.3973   -0.0859 C   0  0  0  1  0  0  0  0  0  0  0  0
   -1.3217    0.7616    0.6841 H   0  0  0  1  0  0  0  0  0  0  0  0
    0.7466    0.5457   -0.1523 C   0  0  0  1  0  0  0  0  0  0  0  0
    1.3639    0.9553   -0.9243 H   0  0  0  1  0  0  0  0  0  0  0  0
    1.3270    1.0498    1.0060 O   0  0  0  1  0  0  0  0  0  0  0  0
    0.7525    1.7174    1.3879 H   0  0  0  1  0  0  0  0  0  0  0  0
    1.5987   -0.7896   -1.1743 O   0  0  0  1  0  0  0  0  0  0  0  0
    2.2238   -1.4395   -0.8450 H   0  0  0  1  0  0  0  0  0  0  0  0
   -0.0081    0.8809   -0.1512 O   0  0  0  1  0  0  0  0  0  0  0  0
    0.8349   -0.2710   -0.0883 C   0  0  0  1  0  0  0  0  0  0  0  0
    1.4898   -0.4806    0.7315 H   0  0  0  1  0  0  0  0  0  0  0  0
   -1.4503    0.7838   -1.3123 C   0  0  0  1  0  0  0  0  0  0  0  0
   -1.3336    0.0364   -2.0690 H   0  0  0  1  0  0  0  0  0  0  0  0
   -1.1021    1.7251   -1.6833 H   0  0  0  1  0  0  0  0  0  0  0  0
   -2.8205    0.8860   -0.9368 O   0  0  0  1  0  0  0  0  0  0  0  0
   -3.3509    1.0865   -1.7115 H   0  0  0  1  0  0  0  0  0  0  0  0
  1  2  1  0  0  0  0
  1  3  1  0  0  0  0
  1  5  1  0  0  0  0
  1 18  1  0  0  0  0
  3  4  1  0  0  0  0
  5  6  1  0  0  0  0
  5  7  1  0  0  0  0
  5  9  1  0  0  0  0
  7  8  1  0  0  0  0
  9 10  1  0  0  0  0
  9 17  1  0  0  0  0
  9 20  1  0  0  0  0
 11 12  1  0  0  0  0
 11 13  1  0  0  0  0
 11 17  1  0  0  0  0
 11 18  1  0  0  0  0
 13 14  1  0  0  0  0
 15 16  1  0  0  0  0
 15 18  1  0  0  0  0
 18 19  1  0  0  0  0
 20 21  1  0  0  0  0
 20 22  1  0  0  0  0
 20 23  1  0  0  0  0
 23 24  1  0  0  0  0
M  END
> <ConfClashScore>
0.0510927 

> <ConfOneFourInteractionScore>
-0.922804 

> <ConfScore>
6.12466 

> <ConfScorePBest>
0.0110815 

> <ConfTolerance>
0.25 

$$$$
L12.****
  PyMOL2.4          3D                             0

 24 24  0  0  0  0  0  0  0  0999 V2000
    0.2085   -0.6849   -0.1411 C   0  0  0  1  0  0  0  0  0  0  0  0
    0.2970   -1.0100   -1.1566 H   0  0  0  1  0  0  0  0  0  0  0  0
    0.3206   -1.9274    0.5447 O   0  0  0  1  0  0  0  0  0  0  0  0
    0.0663   -2.6421   -0.0436 H   0  0  0  1  0  0  0  0  0  0  0  0
   -0.5547   -0.3927   -0.0229 C   0  0  0  1  0  0  0  0  0  0  0  0
   -1.1839   -0.5762   -0.8687 H   0  0  0  1  0  0  0  0  0  0  0  0
   -1.0624   -1.3165    0.9416 O   0  0  0  1  0  0  0  0  0  0  0  0
   -1.9968   -1.4668    0.7804 H   0  0  0  1  0  0  0  0  0  0  0  0
   -0.6633    0.3660    0.2796 C   0  0  0  1  0  0  0  0  0  0  0  0
   -1.3363    0.3349    1.1109 H   0  0  0  1  0  0  0  0  0  0  0  0
    0.7542    0.5423    0.3466 C   0  0  0  1  0  0  0  0  0  0  0  0
    1.3646    0.7028    1.2106 H   0  0  0  1  0  0  0  0  0  0  0  0
    1.3722    1.3513   -0.6070 O   0  0  0  1  0  0  0  0  0  0  0  0
    0.9417    2.2092   -0.6270 H   0  0  0  1  0  0  0  0  0  0  0  0
    1.5504   -0.9726    1.0351 O   0  0  0  1  0  0  0  0  0  0  0  0
    2.2165   -1.5213    0.6146 H   0  0  0  1  0  0  0  0  0  0  0  0
   -0.0090    0.8344    0.4648 O   0  0  0  1  0  0  0  0  0  0  0  0
    0.8628   -0.2165    0.0441 C   0  0  0  1  0  0  0  0  0  0  0  0
    1.5688   -0.2108   -0.7600 H   0  0  0  1  0  0  0  0  0  0  0  0
   -1.4501    1.2121   -0.6832 C   0  0  0  1  0  0  0  0  0  0  0  0
   -1.3705    2.2364   -0.3843 H   0  0  0  1  0  0  0  0  0  0  0  0
   -2.4756    0.9085   -0.6482 H   0  0  0  1  0  0  0  0  0  0  0  0
   -0.9868    1.0903   -2.0108 O   0  0  0  1  0  0  0  0  0  0  0  0
   -1.5029    1.6618   -2.5840 H   0  0  0  1  0  0  0  0  0  0  0  0
  1  2  1  0  0  0  0
  1  3  1  0  0  0  0
  1  5  1  0  0  0  0
  1 18  1  0  0  0  0
  3  4  1  0  0  0  0
  5  6  1  0  0  0  0
  5  7  1  0  0  0  0
  5  9  1  0  0  0  0
  7  8  1  0  0  0  0
  9 10  1  0  0  0  0
  9 17  1  0  0  0  0
  9 20  1  0  0  0  0
 11 12  1  0  0  0  0
 11 13  1  0  0  0  0
 11 17  1  0  0  0  0
 11 18  1  0  0  0  0
 13 14  1  0  0  0  0
 15 16  1  0  0  0  0
 15 18  1  0  0  0  0
 18 19  1  0  0  0  0
 20 21  1  0  0  0  0
 20 22  1  0  0  0  0
 20 23  1  0  0  0  0
 23 24  1  0  0  0  0
M  END
> <ConfClashScore>
0.0529406 

> <ConfOneFourInteractionScore>
-0.969113 

> <ConfScore>
6.16287 

> <ConfScorePBest>
0.0109785 

> <ConfTolerance>
0.25 

$$$$
L12.****
  PyMOL2.4          3D                             0

 24 24  0  0  0  0  0  0  0  0999 V2000
    0.1277   -0.8112    0.2953 C   0  0  0  1  0  0  0  0  0  0  0  0
    0.1056   -1.2737    1.2599 H   0  0  0  1  0  0  0  0  0  0  0  0
    0.3816   -1.9155   -0.5664 O   0  0  0  1  0  0  0  0  0  0  0  0
   -0.2358   -2.6239   -0.3699 H   0  0  0  1  0  0  0  0  0  0  0  0
   -0.6104   -0.5050    0.0872 C   0  0  0  1  0  0  0  0  0  0  0  0
   -1.1612   -1.2044   -0.5063 H   0  0  0  1  0  0  0  0  0  0  0  0
   -1.3965   -0.4454    1.2788 O   0  0  0  1  0  0  0  0  0  0  0  0
   -0.9059    0.0149    1.9637 H   0  0  0  1  0  0  0  0  0  0  0  0
   -0.6682    0.2559   -0.2236 C   0  0  0  1  0  0  0  0  0  0  0  0
   -1.4535    0.8153    0.2403 H   0  0  0  1  0  0  0  0  0  0  0  0
    0.7501    0.4063   -0.1191 C   0  0  0  1  0  0  0  0  0  0  0  0
    1.4982    0.6051   -0.8577 H   0  0  0  1  0  0  0  0  0  0  0  0
    1.1343    1.2260    0.9478 O   0  0  0  1  0  0  0  0  0  0  0  0
    0.4767    1.9133    1.0768 H   0  0  0  1  0  0  0  0  0  0  0  0
    1.6083   -1.0107   -0.7857 O   0  0  0  1  0  0  0  0  0  0  0  0
    2.5333   -0.9493   -0.5361 H   0  0  0  1  0  0  0  0  0  0  0  0
    0.0120    0.7125   -0.3271 O   0  0  0  1  0  0  0  0  0  0  0  0
    0.8078   -0.3546    0.1918 C   0  0  0  1  0  0  0  0  0  0  0  0
    1.4362   -0.3812    1.0574 H   0  0  0  1  0  0  0  0  0  0  0  0
   -1.1732    0.1407   -1.6440 C   0  0  0  1  0  0  0  0  0  0  0  0
   -0.5242   -0.5140   -2.1871 H   0  0  0  1  0  0  0  0  0  0  0  0
   -1.1587    1.1117   -2.0934 H   0  0  0  1  0  0  0  0  0  0  0  0
   -2.5000   -0.3733   -1.7095 O   0  0  0  1  0  0  0  0  0  0  0  0
   -2.5360   -1.0865   -2.3511 H   0  0  0  1  0  0  0  0  0  0  0  0
  1  2  1  0  0  0  0
  1  3  1  0  0  0  0
  1  5  1  0  0  0  0
  1 18  1  0  0  0  0
  3  4  1  0  0  0  0
  5  6  1  0  0  0  0
  5  7  1  0  0  0  0
  5  9  1  0  0  0  0
  7  8  1  0  0  0  0
  9 10  1  0  0  0  0
  9 17  1  0  0  0  0
  9 20  1  0  0  0  0
 11 12  1  0  0  0  0
 11 13  1  0  0  0  0
 11 17  1  0  0  0  0
 11 18  1  0  0  0  0
 13 14  1  0  0  0  0
 15 16  1  0  0  0  0
 15 18  1  0  0  0  0
 18 19  1  0  0  0  0
 20 21  1  0  0  0  0
 20 22  1  0  0  0  0
 20 23  1  0  0  0  0
 23 24  1  0  0  0  0
M  END
> <ConfClashScore>
0.0548498 

> <ConfOneFourInteractionScore>
-0.95019 

> <ConfScore>
6.32132 

> <ConfScorePBest>
0.0108755 

> <ConfTolerance>
0.25 

$$$$
L12.****
  PyMOL2.4          3D                             0

 24 24  0  0  0  0  0  0  0  0999 V2000
    0.0730   -0.7182   -0.1282 C   0  0  0  1  0  0  0  0  0  0  0  0
    0.1526   -1.2268   -1.0663 H   0  0  0  1  0  0  0  0  0  0  0  0
    0.0984   -1.7996    0.7973 O   0  0  0  1  0  0  0  0  0  0  0  0
    0.4507   -2.5819    0.3665 H   0  0  0  1  0  0  0  0  0  0  0  0
   -0.6802   -0.3942   -0.0309 C   0  0  0  1  0  0  0  0  0  0  0  0
   -1.3185   -0.6242   -0.8583 H   0  0  0  1  0  0  0  0  0  0  0  0
   -1.2439   -1.1849    1.0173 O   0  0  0  1  0  0  0  0  0  0  0  0
   -1.8942   -1.7877    0.6496 H   0  0  0  1  0  0  0  0  0  0  0  0
   -0.7639    0.3895    0.2094 C   0  0  0  1  0  0  0  0  0  0  0  0
   -1.4767    0.4804    1.0022 H   0  0  0  1  0  0  0  0  0  0  0  0
    0.6587    0.5272    0.2556 C   0  0  0  1  0  0  0  0  0  0  0  0
    1.2804    0.7394    1.1002 H   0  0  0  1  0  0  0  0  0  0  0  0
    1.2986    1.2419   -0.7706 O   0  0  0  1  0  0  0  0  0  0  0  0
    1.9721    1.8119   -0.3923 H   0  0  0  1  0  0  0  0  0  0  0  0
    1.5630   -0.9428    0.9546 O   0  0  0  1  0  0  0  0  0  0  0  0
    2.4848   -0.8498    0.7030 H   0  0  0  1  0  0  0  0  0  0  0  0
   -0.0945    0.8512    0.3529 O   0  0  0  1  0  0  0  0  0  0  0  0
    0.7424   -0.2565    0.0153 C   0  0  0  1  0  0  0  0  0  0  0  0
    1.3685   -0.2838   -0.8520 H   0  0  0  1  0  0  0  0  0  0  0  0
   -1.4044    1.2238   -0.8622 C   0  0  0  1  0  0  0  0  0  0  0  0
   -0.8395    1.1359   -1.7667 H   0  0  0  1  0  0  0  0  0  0  0  0
   -1.4243    2.2476   -0.5517 H   0  0  0  1  0  0  0  0  0  0  0  0
   -2.7333    0.7732   -1.0895 O   0  0  0  1  0  0  0  0  0  0  0  0
   -3.2827    1.5151   -1.3528 H   0  0  0  1  0  0  0  0  0  0  0  0
  1  2  1  0  0  0  0
  1  3  1  0  0  0  0
  1  5  1  0  0  0  0
  1 18  1  0  0  0  0
  3  4  1  0  0  0  0
  5  6  1  0  0  0  0
  5  7  1  0  0  0  0
  5  9  1  0  0  0  0
  7  8  1  0  0  0  0
  9 10  1  0  0  0  0
  9 17  1  0  0  0  0
  9 20  1  0  0  0  0
 11 12  1  0  0  0  0
 11 13  1  0  0  0  0
 11 17  1  0  0  0  0
 11 18  1  0  0  0  0
 13 14  1  0  0  0  0
 15 16  1  0  0  0  0
 15 18  1  0  0  0  0
 18 19  1  0  0  0  0
 20 21  1  0  0  0  0
 20 22  1  0  0  0  0
 20 23  1  0  0  0  0
 23 24  1  0  0  0  0
M  END
> <ConfClashScore>
0.0559449 

> <ConfOneFourInteractionScore>
-0.942638 

> <ConfScore>
6.40496 

> <ConfScorePBest>
0.0107725 

> <ConfTolerance>
0.25 

$$$$
L12.****
  PyMOL2.4          3D                             0

 24 24  0  0  0  0  0  0  0  0999 V2000
    0.0741   -0.8495    0.3191 C   0  0  0  1  0  0  0  0  0  0  0  0
    0.2114   -1.6279   -0.4022 H   0  0  0  1  0  0  0  0  0  0  0  0
    0.0124   -1.5973    1.5289 O   0  0  0  1  0  0  0  0  0  0  0  0
    0.1240   -1.0061    2.2770 H   0  0  0  1  0  0  0  0  0  0  0  0
   -0.6619   -0.4921    0.2081 C   0  0  0  1  0  0  0  0  0  0  0  0
   -1.3791   -0.8680    0.9075 H   0  0  0  1  0  0  0  0  0  0  0  0
   -1.1283   -1.0504   -1.0217 O   0  0  0  1  0  0  0  0  0  0  0  0
   -0.6527   -0.6529   -1.7548 H   0  0  0  1  0  0  0  0  0  0  0  0
   -0.7162    0.3274    0.1411 C   0  0  0  1  0  0  0  0  0  0  0  0
   -1.3391    0.6170   -0.6793 H   0  0  0  1  0  0  0  0  0  0  0  0
    0.7014    0.4340    0.2960 C   0  0  0  1  0  0  0  0  0  0  0  0
    1.3095    0.9502    1.0091 H   0  0  0  1  0  0  0  0  0  0  0  0
    1.3668    0.6657   -0.9192 O   0  0  0  1  0  0  0  0  0  0  0  0
    0.9240    1.3705   -1.3977 H   0  0  0  1  0  0  0  0  0  0  0  0
    1.5223   -0.8919   -0.7245 O   0  0  0  1  0  0  0  0  0  0  0  0
    2.3439   -1.2614   -0.3928 H   0  0  0  1  0  0  0  0  0  0  0  0
   -0.0346    0.7914    0.1850 O   0  0  0  1  0  0  0  0  0  0  0  0
    0.7557   -0.3855    0.3629 C   0  0  0  1  0  0  0  0  0  0  0  0
    1.3545   -0.6630    1.2051 H   0  0  0  1  0  0  0  0  0  0  0  0
   -1.5210    0.8048    1.3155 C   0  0  0  1  0  0  0  0  0  0  0  0
   -1.4511    1.8702    1.3850 H   0  0  0  1  0  0  0  0  0  0  0  0
   -1.1389    0.3626    2.2118 H   0  0  0  1  0  0  0  0  0  0  0  0
   -2.8820    0.4306    1.1471 O   0  0  0  1  0  0  0  0  0  0  0  0
   -3.0814    0.3601    0.2107 H   0  0  0  1  0  0  0  0  0  0  0  0
  1  2  1  0  0  0  0
  1  3  1  0  0  0  0
  1  5  1  0  0  0  0
  1 18  1  0  0  0  0
  3  4  1  0  0  0  0
  5  6  1  0  0  0  0
  5  7  1  0  0  0  0
  5  9  1  0  0  0  0
  7  8  1  0  0  0  0
  9 10  1  0  0  0  0
  9 17  1  0  0  0  0
  9 20  1  0  0  0  0
 11 12  1  0  0  0  0
 11 13  1  0  0  0  0
 11 17  1  0  0  0  0
 11 18  1  0  0  0  0
 13 14  1  0  0  0  0
 15 16  1  0  0  0  0
 15 18  1  0  0  0  0
 18 19  1  0  0  0  0
 20 21  1  0  0  0  0
 20 22  1  0  0  0  0
 20 23  1  0  0  0  0
 23 24  1  0  0  0  0
M  END
> <ConfClashScore>
0.0548914 

> <ConfOneFourInteractionScore>
-0.922804 

> <ConfScore>
6.40661 

> <ConfScorePBest>
0.0106695 

> <ConfTolerance>
0.25 

$$$$
L12.****
  PyMOL2.4          3D                             0

 24 24  0  0  0  0  0  0  0  0999 V2000
    0.2450   -0.6870    0.2710 C   0  0  0  1  0  0  0  0  0  0  0  0
    0.6638   -1.0227    1.1967 H   0  0  0  1  0  0  0  0  0  0  0  0
   -0.0591   -1.9179   -0.3764 O   0  0  0  1  0  0  0  0  0  0  0  0
   -0.0909   -2.6229    0.2744 H   0  0  0  1  0  0  0  0  0  0  0  0
   -0.4823   -0.3165    0.3959 C   0  0  0  1  0  0  0  0  0  0  0  0
   -0.6807   -0.2696    1.4463 H   0  0  0  1  0  0  0  0  0  0  0  0
   -1.4938   -1.2294   -0.0331 O   0  0  0  1  0  0  0  0  0  0  0  0
   -2.0496   -1.4656    0.7132 H   0  0  0  1  0  0  0  0  0  0  0  0
   -0.6343    0.4184    0.0556 C   0  0  0  1  0  0  0  0  0  0  0  0
   -0.9582    1.0989    0.8152 H   0  0  0  1  0  0  0  0  0  0  0  0
    0.6680    0.4142   -0.5351 C   0  0  0  1  0  0  0  0  0  0  0  0
    0.9610    0.4469   -1.5637 H   0  0  0  1  0  0  0  0  0  0  0  0
    1.5775    1.2728    0.0716 O   0  0  0  1  0  0  0  0  0  0  0  0
    1.1425    1.7510    0.7813 H   0  0  0  1  0  0  0  0  0  0  0  0
    2.0157   -0.1534    0.5593 O   0  0  0  1  0  0  0  0  0  0  0  0
    2.3600   -1.0140    0.8092 H   0  0  0  1  0  0  0  0  0  0  0  0
   -0.0594    0.7846   -0.4103 O   0  0  0  1  0  0  0  0  0  0  0  0
    0.8199   -0.3207   -0.1949 C   0  0  0  1  0  0  0  0  0  0  0  0
    1.1483   -1.0014   -0.9523 H   0  0  0  1  0  0  0  0  0  0  0  0
   -1.8264    0.4494   -0.8608 C   0  0  0  1  0  0  0  0  0  0  0  0
   -2.6730    0.0580   -0.3363 H   0  0  0  1  0  0  0  0  0  0  0  0
   -1.6200   -0.1632   -1.7134 H   0  0  0  1  0  0  0  0  0  0  0  0
   -2.1340    1.7635   -1.3071 O   0  0  0  1  0  0  0  0  0  0  0  0
   -2.6015    1.7164   -2.1442 H   0  0  0  1  0  0  0  0  0  0  0  0
  1  2  1  0  0  0  0
  1  3  1  0  0  0  0
  1  5  1  0  0  0  0
  1 18  1  0  0  0  0
  3  4  1  0  0  0  0
  5  6  1  0  0  0  0
  5  7  1  0  0  0  0
  5  9  1  0  0  0  0
  7  8  1  0  0  0  0
  9 10  1  0  0  0  0
  9 17  1  0  0  0  0
  9 20  1  0  0  0  0
 11 12  1  0  0  0  0
 11 13  1  0  0  0  0
 11 17  1  0  0  0  0
 11 18  1  0  0  0  0
 13 14  1  0  0  0  0
 15 16  1  0  0  0  0
 15 18  1  0  0  0  0
 18 19  1  0  0  0  0
 20 21  1  0  0  0  0
 20 22  1  0  0  0  0
 20 23  1  0  0  0  0
 23 24  1  0  0  0  0
M  END
> <ConfClashScore>
0.0593114 

> <ConfOneFourInteractionScore>
-0.971319 

> <ConfScore>
6.60174 

> <ConfScorePBest>
0.0105665 

> <ConfTolerance>
0.48406 

$$$$
L12.****
  PyMOL2.4          3D                             0

 24 24  0  0  0  0  0  0  0  0999 V2000
    0.0919   -0.7700   -0.1514 C   0  0  0  1  0  0  0  0  0  0  0  0
   -0.0334   -1.5809   -0.8381 H   0  0  0  1  0  0  0  0  0  0  0  0
    0.5730   -1.4364    1.0110 O   0  0  0  1  0  0  0  0  0  0  0  0
    0.8119   -2.3389    0.7873 H   0  0  0  1  0  0  0  0  0  0  0  0
   -0.6354   -0.4331    0.0468 C   0  0  0  1  0  0  0  0  0  0  0  0
   -1.4395   -0.9304   -0.4542 H   0  0  0  1  0  0  0  0  0  0  0  0
   -0.8346   -0.8374    1.4026 O   0  0  0  1  0  0  0  0  0  0  0  0
   -1.7564   -0.7155    1.6412 H   0  0  0  1  0  0  0  0  0  0  0  0
   -0.7309    0.3850    0.0227 C   0  0  0  1  0  0  0  0  0  0  0  0
   -1.1527    0.7330    0.9424 H   0  0  0  1  0  0  0  0  0  0  0  0
    0.6281    0.5312   -0.3978 C   0  0  0  1  0  0  0  0  0  0  0  0
    1.0334    0.9548   -1.2929 H   0  0  0  1  0  0  0  0  0  0  0  0
    1.4861    1.0103    0.5855 O   0  0  0  1  0  0  0  0  0  0  0  0
    1.0347    1.0095    1.4327 H   0  0  0  1  0  0  0  0  0  0  0  0
    1.8044   -0.5871    0.5027 O   0  0  0  1  0  0  0  0  0  0  0  0
    2.4268   -1.1665    0.0571 H   0  0  0  1  0  0  0  0  0  0  0  0
   -0.0992    0.8681   -0.1997 O   0  0  0  1  0  0  0  0  0  0  0  0
    0.7235   -0.2869   -0.3737 C   0  0  0  1  0  0  0  0  0  0  0  0
    1.1170   -0.6262   -1.3091 H   0  0  0  1  0  0  0  0  0  0  0  0
   -1.7817    0.8323   -0.9522 C   0  0  0  1  0  0  0  0  0  0  0  0
   -2.0975   -0.0023   -1.5426 H   0  0  0  1  0  0  0  0  0  0  0  0
   -1.3754    1.5884   -1.5911 H   0  0  0  1  0  0  0  0  0  0  0  0
   -2.8966    1.3601   -0.2457 O   0  0  0  1  0  0  0  0  0  0  0  0
   -2.9374    0.9662    0.6288 H   0  0  0  1  0  0  0  0  0  0  0  0
  1  2  1  0  0  0  0
  1  3  1  0  0  0  0
  1  5  1  0  0  0  0
  1 18  1  0  0  0  0
  3  4  1  0  0  0  0
  5  6  1  0  0  0  0
  5  7  1  0  0  0  0
  5  9  1  0  0  0  0
  7  8  1  0  0  0  0
  9 10  1  0  0  0  0
  9 17  1  0  0  0  0
  9 20  1  0  0  0  0
 11 12  1  0  0  0  0
 11 13  1  0  0  0  0
 11 17  1  0  0  0  0
 11 18  1  0  0  0  0
 13 14  1  0  0  0  0
 15 16  1  0  0  0  0
 15 18  1  0  0  0  0
 18 19  1  0  0  0  0
 20 21  1  0  0  0  0
 20 22  1  0  0  0  0
 20 23  1  0  0  0  0
 23 24  1  0  0  0  0
M  END
> <ConfClashScore>
0.0560929 

> <ConfOneFourInteractionScore>
-0.922804 

> <ConfScore>
6.62099 

> <ConfScorePBest>
0.0104635 

> <ConfTolerance>
0.586269 

$$$$
L12.****
  PyMOL2.4          3D                             0

 24 24  0  0  0  0  0  0  0  0999 V2000
    0.1287   -0.7540    0.0656 C   0  0  0  1  0  0  0  0  0  0  0  0
    0.2124   -1.6392   -0.5297 H   0  0  0  1  0  0  0  0  0  0  0  0
    0.2219   -1.2832    1.3840 O   0  0  0  1  0  0  0  0  0  0  0  0
    0.4531   -2.2139    1.3402 H   0  0  0  1  0  0  0  0  0  0  0  0
   -0.6215   -0.4196   -0.0188 C   0  0  0  1  0  0  0  0  0  0  0  0
   -1.2268   -1.0071   -0.6771 H   0  0  0  1  0  0  0  0  0  0  0  0
   -1.2741   -0.6203    1.2363 O   0  0  0  1  0  0  0  0  0  0  0  0
   -1.7654   -1.4447    1.2137 H   0  0  0  1  0  0  0  0  0  0  0  0
   -0.6981    0.3830   -0.1888 C   0  0  0  1  0  0  0  0  0  0  0  0
   -1.3413    0.8310    0.5396 H   0  0  0  1  0  0  0  0  0  0  0  0
    0.7254    0.5187   -0.1904 C   0  0  0  1  0  0  0  0  0  0  0  0
    1.3358    0.7745   -1.0311 H   0  0  0  1  0  0  0  0  0  0  0  0
    1.3825    1.1902    0.8495 O   0  0  0  1  0  0  0  0  0  0  0  0
    1.0483    0.8785    1.6938 H   0  0  0  1  0  0  0  0  0  0  0  0
    1.4874   -0.8784   -1.1175 O   0  0  0  1  0  0  0  0  0  0  0  0
    2.3864   -0.5436   -1.1532 H   0  0  0  1  0  0  0  0  0  0  0  0
   -0.0248    0.8532   -0.2748 O   0  0  0  1  0  0  0  0  0  0  0  0
    0.8021   -0.2839   -0.0204 C   0  0  0  1  0  0  0  0  0  0  0  0
    1.4885   -0.4438    0.7847 H   0  0  0  1  0  0  0  0  0  0  0  0
   -1.4536    0.7175   -1.4427 C   0  0  0  1  0  0  0  0  0  0  0  0
   -0.8173    0.5723   -2.2907 H   0  0  0  1  0  0  0  0  0  0  0  0
   -1.7709    1.7387   -1.4050 H   0  0  0  1  0  0  0  0  0  0  0  0
   -2.5915   -0.1269   -1.5557 O   0  0  0  1  0  0  0  0  0  0  0  0
   -3.0938    0.1150   -2.3372 H   0  0  0  1  0  0  0  0  0  0  0  0
  1  2  1  0  0  0  0
  1  3  1  0  0  0  0
  1  5  1  0  0  0  0
  1 18  1  0  0  0  0
  3  4  1  0  0  0  0
  5  6  1  0  0  0  0
  5  7  1  0  0  0  0
  5  9  1  0  0  0  0
  7  8  1  0  0  0  0
  9 10  1  0  0  0  0
  9 17  1  0  0  0  0
  9 20  1  0  0  0  0
 11 12  1  0  0  0  0
 11 13  1  0  0  0  0
 11 17  1  0  0  0  0
 11 18  1  0  0  0  0
 13 14  1  0  0  0  0
 15 16  1  0  0  0  0
 15 18  1  0  0  0  0
 18 19  1  0  0  0  0
 20 21  1  0  0  0  0
 20 22  1  0  0  0  0
 20 23  1  0  0  0  0
 23 24  1  0  0  0  0
M  END
> <ConfClashScore>
0.0576945 

> <ConfOneFourInteractionScore>
-0.969113 

> <ConfScore>
6.65126 

> <ConfScorePBest>
0.0103605 

> <ConfTolerance>
0.56141 

$$$$
L12.****
  PyMOL2.4          3D                             0

 24 24  0  0  0  0  0  0  0  0999 V2000
    0.1030   -0.8013    0.2141 C   0  0  0  1  0  0  0  0  0  0  0  0
    0.0624   -1.3118    1.1536 H   0  0  0  1  0  0  0  0  0  0  0  0
    0.3260   -1.8773   -0.6909 O   0  0  0  1  0  0  0  0  0  0  0  0
    0.4028   -2.6985   -0.1997 H   0  0  0  1  0  0  0  0  0  0  0  0
   -0.6474   -0.5337   -0.0029 C   0  0  0  1  0  0  0  0  0  0  0  0
   -1.1498   -1.2237   -0.6482 H   0  0  0  1  0  0  0  0  0  0  0  0
   -1.4214   -0.6100    1.1962 O   0  0  0  1  0  0  0  0  0  0  0  0
   -1.0863    0.0237    1.8348 H   0  0  0  1  0  0  0  0  0  0  0  0
   -0.7533    0.2479   -0.2412 C   0  0  0  1  0  0  0  0  0  0  0  0
   -1.5731    0.6931    0.2829 H   0  0  0  1  0  0  0  0  0  0  0  0
    0.6413    0.4964   -0.0460 C   0  0  0  1  0  0  0  0  0  0  0  0
    1.3925    0.8076   -0.7415 H   0  0  0  1  0  0  0  0  0  0  0  0
    0.9391    1.2483    1.0858 O   0  0  0  1  0  0  0  0  0  0  0  0
    1.4299    2.0326    0.8296 H   0  0  0  1  0  0  0  0  0  0  0  0
    1.7015   -0.8378   -0.7081 O   0  0  0  1  0  0  0  0  0  0  0  0
    2.2403   -1.4846   -0.2467 H   0  0  0  1  0  0  0  0  0  0  0  0
   -0.1091    0.7639   -0.2631 O   0  0  0  1  0  0  0  0  0  0  0  0
    0.7472   -0.2853    0.1923 C   0  0  0  1  0  0  0  0  0  0  0  0
    1.2810   -0.3210    1.1190 H   0  0  0  1  0  0  0  0  0  0  0  0
   -1.2596    0.2864   -1.6569 C   0  0  0  1  0  0  0  0  0  0  0  0
   -2.3053    0.5134   -1.6546 H   0  0  0  1  0  0  0  0  0  0  0  0
   -1.1020   -0.6667   -2.1169 H   0  0  0  1  0  0  0  0  0  0  0  0
   -0.5609    1.2853   -2.3881 O   0  0  0  1  0  0  0  0  0  0  0  0
   -1.1703    1.9829   -2.6403 H   0  0  0  1  0  0  0  0  0  0  0  0
  1  2  1  0  0  0  0
  1  3  1  0  0  0  0
  1  5  1  0  0  0  0
  1 18  1  0  0  0  0
  3  4  1  0  0  0  0
  5  6  1  0  0  0  0
  5  7  1  0  0  0  0
  5  9  1  0  0  0  0
  7  8  1  0  0  0  0
  9 10  1  0  0  0  0
  9 17  1  0  0  0  0
  9 20  1  0  0  0  0
 11 12  1  0  0  0  0
 11 13  1  0  0  0  0
 11 17  1  0  0  0  0
 11 18  1  0  0  0  0
 13 14  1  0  0  0  0
 15 16  1  0  0  0  0
 15 18  1  0  0  0  0
 18 19  1  0  0  0  0
 20 21  1  0  0  0  0
 20 22  1  0  0  0  0
 20 23  1  0  0  0  0
 23 24  1  0  0  0  0
M  END
> <ConfClashScore>
0.0568857 

> <ConfOneFourInteractionScore>
-0.980166 

> <ConfScore>
6.65926 

> <ConfScorePBest>
0.0102575 

> <ConfTolerance>
0.59967 

$$$$
L12.****
  PyMOL2.4          3D                             0

 24 24  0  0  0  0  0  0  0  0999 V2000
    0.0992   -0.7861    0.3851 C   0  0  0  1  0  0  0  0  0  0  0  0
    0.0687   -1.7377   -0.1033 H   0  0  0  1  0  0  0  0  0  0  0  0
    0.1454   -1.1814    1.7520 O   0  0  0  1  0  0  0  0  0  0  0  0
    0.8328   -1.8407    1.8719 H   0  0  0  1  0  0  0  0  0  0  0  0
   -0.6199   -0.3967    0.2711 C   0  0  0  1  0  0  0  0  0  0  0  0
   -1.1905   -0.4337    1.1755 H   0  0  0  1  0  0  0  0  0  0  0  0
   -1.4103   -1.2234   -0.5851 O   0  0  0  1  0  0  0  0  0  0  0  0
   -1.0140   -1.2510   -1.4591 H   0  0  0  1  0  0  0  0  0  0  0  0
   -0.6299    0.3712   -0.0275 C   0  0  0  1  0  0  0  0  0  0  0  0
   -1.2619    0.3923   -0.8906 H   0  0  0  1  0  0  0  0  0  0  0  0
    0.7983    0.3621   -0.0988 C   0  0  0  1  0  0  0  0  0  0  0  0
    1.4343    0.4580   -0.9539 H   0  0  0  1  0  0  0  0  0  0  0  0
    1.4483    1.1371    0.8489 O   0  0  0  1  0  0  0  0  0  0  0  0
    1.2059    2.0584    0.7305 H   0  0  0  1  0  0  0  0  0  0  0  0
    1.4668   -1.1948   -0.7853 O   0  0  0  1  0  0  0  0  0  0  0  0
    0.8837   -1.3206   -1.5375 H   0  0  0  1  0  0  0  0  0  0  0  0
    0.0792    0.7516   -0.2128 O   0  0  0  1  0  0  0  0  0  0  0  0
    0.8083   -0.4058    0.1998 C   0  0  0  1  0  0  0  0  0  0  0  0
    1.4905   -0.4750    1.0212 H   0  0  0  1  0  0  0  0  0  0  0  0
   -1.3677    1.3313    0.8607 C   0  0  0  1  0  0  0  0  0  0  0  0
   -0.8082    2.2394    0.9451 H   0  0  0  1  0  0  0  0  0  0  0  0
   -1.4905    0.8960    1.8305 H   0  0  0  1  0  0  0  0  0  0  0  0
   -2.6450    1.6133    0.3043 O   0  0  0  1  0  0  0  0  0  0  0  0
   -3.3273    1.4062    0.9470 H   0  0  0  1  0  0  0  0  0  0  0  0
  1  2  1  0  0  0  0
  1  3  1  0  0  0  0
  1  5  1  0  0  0  0
  1 18  1  0  0  0  0
  3  4  1  0  0  0  0
  5  6  1  0  0  0  0
  5  7  1  0  0  0  0
  5  9  1  0  0  0  0
  7  8  1  0  0  0  0
  9 10  1  0  0  0  0
  9 17  1  0  0  0  0
  9 20  1  0  0  0  0
 11 12  1  0  0  0  0
 11 13  1  0  0  0  0
 11 17  1  0  0  0  0
 11 18  1  0  0  0  0
 13 14  1  0  0  0  0
 15 16  1  0  0  0  0
 15 18  1  0  0  0  0
 18 19  1  0  0  0  0
 20 21  1  0  0  0  0
 20 22  1  0  0  0  0
 20 23  1  0  0  0  0
 23 24  1  0  0  0  0
M  END
> <ConfClashScore>
0.0571917 

> <ConfOneFourInteractionScore>
-0.922804 

> <ConfScore>
6.74812 

> <ConfScorePBest>
0.0101545 

> <ConfTolerance>
0.569868 

$$$$
L12.****
  PyMOL2.4          3D                             0

 24 24  0  0  0  0  0  0  0  0999 V2000
    0.1457   -0.7905    0.2008 C   0  0  0  1  0  0  0  0  0  0  0  0
    0.0139   -1.3057    1.1293 H   0  0  0  1  0  0  0  0  0  0  0  0
    0.3634   -1.8709   -0.7002 O   0  0  0  1  0  0  0  0  0  0  0  0
    0.6477   -2.6454   -0.2093 H   0  0  0  1  0  0  0  0  0  0  0  0
   -0.5662   -0.4520   -0.0448 C   0  0  0  1  0  0  0  0  0  0  0  0
   -1.0260   -1.0638   -0.7926 H   0  0  0  1  0  0  0  0  0  0  0  0
   -1.4456   -0.6493    1.0639 O   0  0  0  1  0  0  0  0  0  0  0  0
   -1.8372   -1.5242    1.0105 H   0  0  0  1  0  0  0  0  0  0  0  0
   -0.5894    0.3398   -0.2718 C   0  0  0  1  0  0  0  0  0  0  0  0
   -1.0271    0.4101   -1.2457 H   0  0  0  1  0  0  0  0  0  0  0  0
    0.8112    0.4565   -0.0082 C   0  0  0  1  0  0  0  0  0  0  0  0
    1.3034    1.0773    0.7109 H   0  0  0  1  0  0  0  0  0  0  0  0
    1.6927    0.4986   -1.0886 O   0  0  0  1  0  0  0  0  0  0  0  0
    1.9867    1.4019   -1.2273 H   0  0  0  1  0  0  0  0  0  0  0  0
    1.2385   -0.2242    1.5794 O   0  0  0  1  0  0  0  0  0  0  0  0
    0.5317    0.1750    2.0920 H   0  0  0  1  0  0  0  0  0  0  0  0
    0.0992    0.7950   -0.2538 O   0  0  0  1  0  0  0  0  0  0  0  0
    0.8344   -0.3353    0.2188 C   0  0  0  1  0  0  0  0  0  0  0  0
    1.6608   -0.8506   -0.2245 H   0  0  0  1  0  0  0  0  0  0  0  0
   -1.5708    1.1727    0.5240 C   0  0  0  1  0  0  0  0  0  0  0  0
   -1.3653    1.0432    1.5660 H   0  0  0  1  0  0  0  0  0  0  0  0
   -2.5625    0.8320    0.3105 H   0  0  0  1  0  0  0  0  0  0  0  0
   -1.4869    2.5568    0.2111 O   0  0  0  1  0  0  0  0  0  0  0  0
   -2.3577    2.9547    0.2817 H   0  0  0  1  0  0  0  0  0  0  0  0
  1  2  1  0  0  0  0
  1  3  1  0  0  0  0
  1  5  1  0  0  0  0
  1 18  1  0  0  0  0
  3  4  1  0  0  0  0
  5  6  1  0  0  0  0
  5  7  1  0  0  0  0
  5  9  1  0  0  0  0
  7  8  1  0  0  0  0
  9 10  1  0  0  0  0
  9 17  1  0  0  0  0
  9 20  1  0  0  0  0
 11 12  1  0  0  0  0
 11 13  1  0  0  0  0
 11 17  1  0  0  0  0
 11 18  1  0  0  0  0
 13 14  1  0  0  0  0
 15 16  1  0  0  0  0
 15 18  1  0  0  0  0
 18 19  1  0  0  0  0
 20 21  1  0  0  0  0
 20 22  1  0  0  0  0
 20 23  1  0  0  0  0
 23 24  1  0  0  0  0
M  END
> <ConfClashScore>
0.059069 

> <ConfOneFourInteractionScore>
-0.978871 

> <ConfScore>
6.84047 

> <ConfScorePBest>
0.0100515 

> <ConfTolerance>
0.25 

$$$$
L12.****
  PyMOL2.4          3D                             0

 24 24  0  0  0  0  0  0  0  0999 V2000
    0.1335   -0.7750    0.3554 C   0  0  0  1  0  0  0  0  0  0  0  0
   -0.0476   -1.3906    1.2116 H   0  0  0  1  0  0  0  0  0  0  0  0
    0.6365   -1.7294   -0.5737 O   0  0  0  1  0  0  0  0  0  0  0  0
    0.9953   -2.4818   -0.0976 H   0  0  0  1  0  0  0  0  0  0  0  0
   -0.5838   -0.5033    0.0496 C   0  0  0  1  0  0  0  0  0  0  0  0
   -0.8405   -1.0644   -0.8246 H   0  0  0  1  0  0  0  0  0  0  0  0
   -1.6012   -0.9238    0.9603 O   0  0  0  1  0  0  0  0  0  0  0  0
   -2.4553   -0.6111    0.6533 H   0  0  0  1  0  0  0  0  0  0  0  0
   -0.6930    0.3009   -0.0925 C   0  0  0  1  0  0  0  0  0  0  0  0
   -1.6023    0.6323    0.3637 H   0  0  0  1  0  0  0  0  0  0  0  0
    0.6320    0.5637    0.3766 C   0  0  0  1  0  0  0  0  0  0  0  0
    0.9237    1.1422    1.2282 H   0  0  0  1  0  0  0  0  0  0  0  0
    1.5574    0.9543   -0.5725 O   0  0  0  1  0  0  0  0  0  0  0  0
    1.2044    1.6877   -1.0815 H   0  0  0  1  0  0  0  0  0  0  0  0
    1.8336   -0.6779   -0.2826 O   0  0  0  1  0  0  0  0  0  0  0  0
    2.4029   -1.2505    0.2367 H   0  0  0  1  0  0  0  0  0  0  0  0
   -0.0852    0.8355    0.0708 O   0  0  0  1  0  0  0  0  0  0  0  0
    0.7412   -0.2405    0.5187 C   0  0  0  1  0  0  0  0  0  0  0  0
    1.1209   -0.3976    1.5067 H   0  0  0  1  0  0  0  0  0  0  0  0
   -1.0054    0.5445   -1.5434 C   0  0  0  1  0  0  0  0  0  0  0  0
   -0.2077    0.1499   -2.1373 H   0  0  0  1  0  0  0  0  0  0  0  0
   -1.0834    1.5993   -1.7054 H   0  0  0  1  0  0  0  0  0  0  0  0
   -2.2243   -0.0714   -1.9481 O   0  0  0  1  0  0  0  0  0  0  0  0
   -2.3082   -0.9271   -1.5211 H   0  0  0  1  0  0  0  0  0  0  0  0
  1  2  1  0  0  0  0
  1  3  1  0  0  0  0
  1  5  1  0  0  0  0
  1 18  1  0  0  0  0
  3  4  1  0  0  0  0
  5  6  1  0  0  0  0
  5  7  1  0  0  0  0
  5  9  1  0  0  0  0
  7  8  1  0  0  0  0
  9 10  1  0  0  0  0
  9 17  1  0  0  0  0
  9 20  1  0  0  0  0
 11 12  1  0  0  0  0
 11 13  1  0  0  0  0
 11 17  1  0  0  0  0
 11 18  1  0  0  0  0
 13 14  1  0  0  0  0
 15 16  1  0  0  0  0
 15 18  1  0  0  0  0
 18 19  1  0  0  0  0
 20 21  1  0  0  0  0
 20 22  1  0  0  0  0
 20 23  1  0  0  0  0
 23 24  1  0  0  0  0
M  END
> <ConfClashScore>
0.0603008 

> <ConfOneFourInteractionScore>
-0.95019 

> <ConfScore>
6.85352 

> <ConfScorePBest>
0.0099485 

> <ConfTolerance>
0.25 

$$$$
L12.****
  PyMOL2.4          3D                             0

 24 24  0  0  0  0  0  0  0  0999 V2000
    0.1301   -0.6088    0.4546 C   0  0  0  1  0  0  0  0  0  0  0  0
    0.3059   -1.0464    1.4150 H   0  0  0  1  0  0  0  0  0  0  0  0
    0.1530   -1.7441   -0.4039 O   0  0  0  1  0  0  0  0  0  0  0  0
    0.3776   -2.5264    0.1052 H   0  0  0  1  0  0  0  0  0  0  0  0
   -0.6342   -0.3017    0.3975 C   0  0  0  1  0  0  0  0  0  0  0  0
   -1.1684   -0.4318    1.3155 H   0  0  0  1  0  0  0  0  0  0  0  0
   -1.3052   -1.2202   -0.4672 O   0  0  0  1  0  0  0  0  0  0  0  0
   -1.7888   -1.8610    0.0593 H   0  0  0  1  0  0  0  0  0  0  0  0
   -0.7530    0.4540    0.0913 C   0  0  0  1  0  0  0  0  0  0  0  0
   -1.3051    1.0253    0.8081 H   0  0  0  1  0  0  0  0  0  0  0  0
    0.6567    0.5975   -0.1013 C   0  0  0  1  0  0  0  0  0  0  0  0
    1.3425    1.3081    0.3106 H   0  0  0  1  0  0  0  0  0  0  0  0
    1.0654    0.5129   -1.4356 O   0  0  0  1  0  0  0  0  0  0  0  0
    2.0230    0.5619   -1.4812 H   0  0  0  1  0  0  0  0  0  0  0  0
    1.5440    0.0239    1.3893 O   0  0  0  1  0  0  0  0  0  0  0  0
    2.2213   -0.6546    1.4393 H   0  0  0  1  0  0  0  0  0  0  0  0
   -0.1077    0.9046   -0.1584 O   0  0  0  1  0  0  0  0  0  0  0  0
    0.7754   -0.1582    0.2049 C   0  0  0  1  0  0  0  0  0  0  0  0
    1.4381   -0.7308   -0.4100 H   0  0  0  1  0  0  0  0  0  0  0  0
   -1.7036    0.5107   -1.0701 C   0  0  0  1  0  0  0  0  0  0  0  0
   -2.6803    0.2048   -0.7579 H   0  0  0  1  0  0  0  0  0  0  0  0
   -1.3614   -0.1323   -1.8539 H   0  0  0  1  0  0  0  0  0  0  0  0
   -1.7395    1.8563   -1.5271 O   0  0  0  1  0  0  0  0  0  0  0  0
   -1.2207    2.4088   -0.9379 H   0  0  0  1  0  0  0  0  0  0  0  0
  1  2  1  0  0  0  0
  1  3  1  0  0  0  0
  1  5  1  0  0  0  0
  1 18  1  0  0  0  0
  3  4  1  0  0  0  0
  5  6  1  0  0  0  0
  5  7  1  0  0  0  0
  5  9  1  0  0  0  0
  7  8  1  0  0  0  0
  9 10  1  0  0  0  0
  9 17  1  0  0  0  0
  9 20  1  0  0  0  0
 11 12  1  0  0  0  0
 11 13  1  0  0  0  0
 11 17  1  0  0  0  0
 11 18  1  0  0  0  0
 13 14  1  0  0  0  0
 15 16  1  0  0  0  0
 15 18  1  0  0  0  0
 18 19  1  0  0  0  0
 20 21  1  0  0  0  0
 20 22  1  0  0  0  0
 20 23  1  0  0  0  0
 23 24  1  0  0  0  0
M  END
> <ConfClashScore>
0.0596259 

> <ConfOneFourInteractionScore>
-0.972614 

> <ConfScore>
6.88627 

> <ConfScorePBest>
0.0098455 

> <ConfTolerance>
0.25 

$$$$
L12.****
  PyMOL2.4          3D                             0

 24 24  0  0  0  0  0  0  0  0999 V2000
    0.1209   -0.8477    0.0803 C   0  0  0  1  0  0  0  0  0  0  0  0
    0.3530   -1.3820    0.9779 H   0  0  0  1  0  0  0  0  0  0  0  0
   -0.0536   -1.8992   -0.8634 O   0  0  0  1  0  0  0  0  0  0  0  0
    0.0896   -2.7445   -0.4316 H   0  0  0  1  0  0  0  0  0  0  0  0
   -0.6273   -0.5004    0.1175 C   0  0  0  1  0  0  0  0  0  0  0  0
   -1.3650   -1.1319   -0.3320 H   0  0  0  1  0  0  0  0  0  0  0  0
   -1.0301   -0.5054    1.4883 O   0  0  0  1  0  0  0  0  0  0  0  0
   -0.5047    0.1309    1.9789 H   0  0  0  1  0  0  0  0  0  0  0  0
   -0.7296    0.2838   -0.1137 C   0  0  0  1  0  0  0  0  0  0  0  0
   -1.2193    0.8221    0.6707 H   0  0  0  1  0  0  0  0  0  0  0  0
    0.6642    0.3754   -0.4198 C   0  0  0  1  0  0  0  0  0  0  0  0
    1.1721    0.6002   -1.3344 H   0  0  0  1  0  0  0  0  0  0  0  0
    1.4160    1.0720    0.5361 O   0  0  0  1  0  0  0  0  0  0  0  0
    0.9660    1.8886    0.7647 H   0  0  0  1  0  0  0  0  0  0  0  0
    1.6691   -0.2631    0.9026 O   0  0  0  1  0  0  0  0  0  0  0  0
    2.0252   -1.1222    1.1409 H   0  0  0  1  0  0  0  0  0  0  0  0
   -0.0840    0.7227   -0.3827 O   0  0  0  1  0  0  0  0  0  0  0  0
    0.7665   -0.4089   -0.1886 C   0  0  0  1  0  0  0  0  0  0  0  0
    1.3503   -0.9581   -0.8974 H   0  0  0  1  0  0  0  0  0  0  0  0
   -1.7125    0.4827   -1.2315 C   0  0  0  1  0  0  0  0  0  0  0  0
   -2.6664    0.7448   -0.8238 H   0  0  0  1  0  0  0  0  0  0  0  0
   -1.8008   -0.4238   -1.7929 H   0  0  0  1  0  0  0  0  0  0  0  0
   -1.2612    1.5254   -2.0858 O   0  0  0  1  0  0  0  0  0  0  0  0
   -0.4513    1.2532   -2.5234 H   0  0  0  1  0  0  0  0  0  0  0  0
  1  2  1  0  0  0  0
  1  3  1  0  0  0  0
  1  5  1  0  0  0  0
  1 18  1  0  0  0  0
  3  4  1  0  0  0  0
  5  6  1  0  0  0  0
  5  7  1  0  0  0  0
  5  9  1  0  0  0  0
  7  8  1  0  0  0  0
  9 10  1  0  0  0  0
  9 17  1  0  0  0  0
  9 20  1  0  0  0  0
 11 12  1  0  0  0  0
 11 13  1  0  0  0  0
 11 17  1  0  0  0  0
 11 18  1  0  0  0  0
 13 14  1  0  0  0  0
 15 16  1  0  0  0  0
 15 18  1  0  0  0  0
 18 19  1  0  0  0  0
 20 21  1  0  0  0  0
 20 22  1  0  0  0  0
 20 23  1  0  0  0  0
 23 24  1  0  0  0  0
M  END
> <ConfClashScore>
0.0591626 

> <ConfOneFourInteractionScore>
-0.980166 

> <ConfScore>
6.91193 

> <ConfScorePBest>
0.0097425 

> <ConfTolerance>
0.657964 

$$$$
L12.****
  PyMOL2.4          3D                             0

 24 24  0  0  0  0  0  0  0  0999 V2000
    0.0488   -0.8403    0.3081 C   0  0  0  1  0  0  0  0  0  0  0  0
    0.2343   -1.6907   -0.3142 H   0  0  0  1  0  0  0  0  0  0  0  0
   -0.0580   -1.4284    1.6001 O   0  0  0  1  0  0  0  0  0  0  0  0
   -0.0982   -0.7367    2.2647 H   0  0  0  1  0  0  0  0  0  0  0  0
   -0.7015   -0.5236    0.1717 C   0  0  0  1  0  0  0  0  0  0  0  0
   -1.4273   -0.9231    0.8488 H   0  0  0  1  0  0  0  0  0  0  0  0
   -1.0338   -1.1803   -1.0530 O   0  0  0  1  0  0  0  0  0  0  0  0
   -0.3824   -0.9587   -1.7224 H   0  0  0  1  0  0  0  0  0  0  0  0
   -0.7938    0.2890    0.0711 C   0  0  0  1  0  0  0  0  0  0  0  0
   -1.3640    0.4913   -0.8114 H   0  0  0  1  0  0  0  0  0  0  0  0
    0.6142    0.4703    0.2431 C   0  0  0  1  0  0  0  0  0  0  0  0
    1.1455    1.0233    0.9893 H   0  0  0  1  0  0  0  0  0  0  0  0
    1.3578    0.7332   -0.9171 O   0  0  0  1  0  0  0  0  0  0  0  0
    1.9752    1.4484   -0.7468 H   0  0  0  1  0  0  0  0  0  0  0  0
    1.5067   -0.7798   -0.7495 O   0  0  0  1  0  0  0  0  0  0  0  0
    2.0284   -1.5396   -0.4808 H   0  0  0  1  0  0  0  0  0  0  0  0
   -0.1361    0.7869    0.1067 O   0  0  0  1  0  0  0  0  0  0  0  0
    0.7065   -0.3423    0.3437 C   0  0  0  1  0  0  0  0  0  0  0  0
    1.3268   -0.5682    1.1858 H   0  0  0  1  0  0  0  0  0  0  0  0
   -1.6823    0.8844    1.1251 C   0  0  0  1  0  0  0  0  0  0  0  0
   -1.1391    1.6287    1.6692 H   0  0  0  1  0  0  0  0  0  0  0  0
   -2.0034    0.1150    1.7958 H   0  0  0  1  0  0  0  0  0  0  0  0
   -2.8177    1.4815    0.5127 O   0  0  0  1  0  0  0  0  0  0  0  0
   -2.8573    1.2220   -0.4107 H   0  0  0  1  0  0  0  0  0  0  0  0
  1  2  1  0  0  0  0
  1  3  1  0  0  0  0
  1  5  1  0  0  0  0
  1 18  1  0  0  0  0
  3  4  1  0  0  0  0
  5  6  1  0  0  0  0
  5  7  1  0  0  0  0
  5  9  1  0  0  0  0
  7  8  1  0  0  0  0
  9 10  1  0  0  0  0
  9 17  1  0  0  0  0
  9 20  1  0  0  0  0
 11 12  1  0  0  0  0
 11 13  1  0  0  0  0
 11 17  1  0  0  0  0
 11 18  1  0  0  0  0
 13 14  1  0  0  0  0
 15 16  1  0  0  0  0
 15 18  1  0  0  0  0
 18 19  1  0  0  0  0
 20 21  1  0  0  0  0
 20 22  1  0  0  0  0
 20 23  1  0  0  0  0
 23 24  1  0  0  0  0
M  END
> <ConfClashScore>
0.0599967 

> <ConfOneFourInteractionScore>
-0.922804 

> <ConfScore>
7.03785 

> <ConfScorePBest>
0.0096395 

> <ConfTolerance>
0.537909 

$$$$
L12.****
  PyMOL2.4          3D                             0

 24 24  0  0  0  0  0  0  0  0999 V2000
    0.1162   -0.5933    0.5767 C   0  0  0  1  0  0  0  0  0  0  0  0
    0.0452   -0.9461    1.5844 H   0  0  0  1  0  0  0  0  0  0  0  0
    0.4887   -1.7740   -0.1262 O   0  0  0  1  0  0  0  0  0  0  0  0
    0.1202   -2.5411    0.3180 H   0  0  0  1  0  0  0  0  0  0  0  0
   -0.6294   -0.4127    0.2715 C   0  0  0  1  0  0  0  0  0  0  0  0
   -1.3812   -0.5653    1.0175 H   0  0  0  1  0  0  0  0  0  0  0  0
   -0.9319   -1.4564   -0.6562 O   0  0  0  1  0  0  0  0  0  0  0  0
   -1.8639   -1.6784   -0.5961 H   0  0  0  1  0  0  0  0  0  0  0  0
   -0.7535    0.3035   -0.1165 C   0  0  0  1  0  0  0  0  0  0  0  0
   -1.2619    0.1551   -1.0463 H   0  0  0  1  0  0  0  0  0  0  0  0
    0.6134    0.6603    0.1048 C   0  0  0  1  0  0  0  0  0  0  0  0
    1.0352    1.4842    0.6415 H   0  0  0  1  0  0  0  0  0  0  0  0
    1.4164    0.5936   -1.0378 O   0  0  0  1  0  0  0  0  0  0  0  0
    2.0902    1.2761   -0.9963 H   0  0  0  1  0  0  0  0  0  0  0  0
    1.7712   -0.7140   -0.2318 O   0  0  0  1  0  0  0  0  0  0  0  0
    2.3375   -1.1908    0.3793 H   0  0  0  1  0  0  0  0  0  0  0  0
   -0.1323    0.8409   -0.2004 O   0  0  0  1  0  0  0  0  0  0  0  0
    0.7375   -0.0560    0.4928 C   0  0  0  1  0  0  0  0  0  0  0  0
    1.2113    0.1117    1.4375 H   0  0  0  1  0  0  0  0  0  0  0  0
   -1.7619    1.1177    0.6465 C   0  0  0  1  0  0  0  0  0  0  0  0
   -1.8193    2.0992    0.2242 H   0  0  0  1  0  0  0  0  0  0  0  0
   -1.4613    1.1867    1.6711 H   0  0  0  1  0  0  0  0  0  0  0  0
   -3.0373    0.4949    0.5692 O   0  0  0  1  0  0  0  0  0  0  0  0
   -3.7241    1.1550    0.6883 H   0  0  0  1  0  0  0  0  0  0  0  0
  1  2  1  0  0  0  0
  1  3  1  0  0  0  0
  1  5  1  0  0  0  0
  1 18  1  0  0  0  0
  3  4  1  0  0  0  0
  5  6  1  0  0  0  0
  5  7  1  0  0  0  0
  5  9  1  0  0  0  0
  7  8  1  0  0  0  0
  9 10  1  0  0  0  0
  9 17  1  0  0  0  0
  9 20  1  0  0  0  0
 11 12  1  0  0  0  0
 11 13  1  0  0  0  0
 11 17  1  0  0  0  0
 11 18  1  0  0  0  0
 13 14  1  0  0  0  0
 15 16  1  0  0  0  0
 15 18  1  0  0  0  0
 18 19  1  0  0  0  0
 20 21  1  0  0  0  0
 20 22  1  0  0  0  0
 20 23  1  0  0  0  0
 23 24  1  0  0  0  0
M  END
> <ConfClashScore>
0.0613441 

> <ConfOneFourInteractionScore>
-0.95019 

> <ConfScore>
7.06226 

> <ConfScorePBest>
0.0095365 

> <ConfTolerance>
0.25 

$$$$
L12.****
  PyMOL2.4          3D                             0

 24 24  0  0  0  0  0  0  0  0999 V2000
    0.1258   -0.6863    0.2372 C   0  0  0  1  0  0  0  0  0  0  0  0
    0.1260   -1.2948    1.1173 H   0  0  0  1  0  0  0  0  0  0  0  0
    0.4471   -1.6260   -0.7828 O   0  0  0  1  0  0  0  0  0  0  0  0
    0.1465   -2.4991   -0.5204 H   0  0  0  1  0  0  0  0  0  0  0  0
   -0.6369   -0.4419    0.0361 C   0  0  0  1  0  0  0  0  0  0  0  0
   -1.0709   -1.0994   -0.6879 H   0  0  0  1  0  0  0  0  0  0  0  0
   -1.4690   -0.6668    1.1756 O   0  0  0  1  0  0  0  0  0  0  0  0
   -1.5419   -1.6101    1.3379 H   0  0  0  1  0  0  0  0  0  0  0  0
   -0.7794    0.3462   -0.1578 C   0  0  0  1  0  0  0  0  0  0  0  0
   -1.6010    0.7208    0.4162 H   0  0  0  1  0  0  0  0  0  0  0  0
    0.6031    0.6473    0.0500 C   0  0  0  1  0  0  0  0  0  0  0  0
    1.0403    1.3063    0.7707 H   0  0  0  1  0  0  0  0  0  0  0  0
    1.4232    0.8493   -1.0724 O   0  0  0  1  0  0  0  0  0  0  0  0
    2.3370    0.9338   -0.7906 H   0  0  0  1  0  0  0  0  0  0  0  0
    1.3498   -0.1146    1.5326 O   0  0  0  1  0  0  0  0  0  0  0  0
    1.9696   -0.8436    1.6108 H   0  0  0  1  0  0  0  0  0  0  0  0
   -0.1596    0.8917   -0.1511 O   0  0  0  1  0  0  0  0  0  0  0  0
    0.7456   -0.1408    0.2439 C   0  0  0  1  0  0  0  0  0  0  0  0
    1.5515   -0.5131   -0.3534 H   0  0  0  1  0  0  0  0  0  0  0  0
   -1.3397    0.4560   -1.5491 C   0  0  0  1  0  0  0  0  0  0  0  0
   -1.4657   -0.5292   -1.9472 H   0  0  0  1  0  0  0  0  0  0  0  0
   -0.6471    1.0006   -2.1562 H   0  0  0  1  0  0  0  0  0  0  0  0
   -2.5944    1.1235   -1.5780 O   0  0  0  1  0  0  0  0  0  0  0  0
   -3.2989    0.4777   -1.6689 H   0  0  0  1  0  0  0  0  0  0  0  0
  1  2  1  0  0  0  0
  1  3  1  0  0  0  0
  1  5  1  0  0  0  0
  1 18  1  0  0  0  0
  3  4  1  0  0  0  0
  5  6  1  0  0  0  0
  5  7  1  0  0  0  0
  5  9  1  0  0  0  0
  7  8  1  0  0  0  0
  9 10  1  0  0  0  0
  9 17  1  0  0  0  0
  9 20  1  0  0  0  0
 11 12  1  0  0  0  0
 11 13  1  0  0  0  0
 11 17  1  0  0  0  0
 11 18  1  0  0  0  0
 13 14  1  0  0  0  0
 15 16  1  0  0  0  0
 15 18  1  0  0  0  0
 18 19  1  0  0  0  0
 20 21  1  0  0  0  0
 20 22  1  0  0  0  0
 20 23  1  0  0  0  0
 23 24  1  0  0  0  0
M  END
> <ConfClashScore>
0.0613808 

> <ConfOneFourInteractionScore>
-0.922804 

> <ConfScore>
7.13704 

> <ConfScorePBest>
0.00943349 

> <ConfTolerance>
0.601866 

$$$$
L12.****
  PyMOL2.4          3D                             0

 24 24  0  0  0  0  0  0  0  0999 V2000
    0.1513   -0.6873    0.2161 C   0  0  0  1  0  0  0  0  0  0  0  0
    0.0525   -1.6243   -0.2912 H   0  0  0  1  0  0  0  0  0  0  0  0
    0.4841   -1.1098    1.5342 O   0  0  0  1  0  0  0  0  0  0  0  0
    1.2082   -1.7388    1.4958 H   0  0  0  1  0  0  0  0  0  0  0  0
   -0.5842   -0.3172    0.2782 C   0  0  0  1  0  0  0  0  0  0  0  0
   -0.9890   -0.4609    1.2582 H   0  0  0  1  0  0  0  0  0  0  0  0
   -1.4790   -1.0968   -0.5173 O   0  0  0  1  0  0  0  0  0  0  0  0
   -1.9653   -1.7021    0.0472 H   0  0  0  1  0  0  0  0  0  0  0  0
   -0.6712    0.4686    0.0459 C   0  0  0  1  0  0  0  0  0  0  0  0
   -1.1271    1.0276    0.8361 H   0  0  0  1  0  0  0  0  0  0  0  0
    0.7127    0.5160   -0.3114 C   0  0  0  1  0  0  0  0  0  0  0  0
    1.1770    0.7073   -1.2562 H   0  0  0  1  0  0  0  0  0  0  0  0
    1.5111    1.2306    0.5743 O   0  0  0  1  0  0  0  0  0  0  0  0
    1.0566    1.3197    1.4152 H   0  0  0  1  0  0  0  0  0  0  0  0
    1.2314   -1.0430   -1.1936 O   0  0  0  1  0  0  0  0  0  0  0  0
    1.7843   -1.7656   -0.8874 H   0  0  0  1  0  0  0  0  0  0  0  0
   -0.0228    0.8861   -0.2492 O   0  0  0  1  0  0  0  0  0  0  0  0
    0.7996   -0.2697   -0.0790 C   0  0  0  1  0  0  0  0  0  0  0  0
    1.6333   -0.3679    0.5845 H   0  0  0  1  0  0  0  0  0  0  0  0
   -1.6966    0.6423   -1.0373 C   0  0  0  1  0  0  0  0  0  0  0  0
   -2.5882    0.1142   -0.7710 H   0  0  0  1  0  0  0  0  0  0  0  0
   -1.3120    0.2531   -1.9568 H   0  0  0  1  0  0  0  0  0  0  0  0
   -1.9951    2.0230   -1.1968 O   0  0  0  1  0  0  0  0  0  0  0  0
   -2.9262    2.1723   -1.0172 H   0  0  0  1  0  0  0  0  0  0  0  0
  1  2  1  0  0  0  0
  1  3  1  0  0  0  0
  1  5  1  0  0  0  0
  1 18  1  0  0  0  0
  3  4  1  0  0  0  0
  5  6  1  0  0  0  0
  5  7  1  0  0  0  0
  5  9  1  0  0  0  0
  7  8  1  0  0  0  0
  9 10  1  0  0  0  0
  9 17  1  0  0  0  0
  9 20  1  0  0  0  0
 11 12  1  0  0  0  0
 11 13  1  0  0  0  0
 11 17  1  0  0  0  0
 11 18  1  0  0  0  0
 13 14  1  0  0  0  0
 15 16  1  0  0  0  0
 15 18  1  0  0  0  0
 18 19  1  0  0  0  0
 20 21  1  0  0  0  0
 20 22  1  0  0  0  0
 20 23  1  0  0  0  0
 23 24  1  0  0  0  0
M  END
> <ConfClashScore>
0.0649048 

> <ConfOneFourInteractionScore>
-0.95019 

> <ConfScore>
7.15716 

> <ConfScorePBest>
0.00933049 

> <ConfTolerance>
0.25 

$$$$
L12.****
  PyMOL2.4          3D                             0

 24 24  0  0  0  0  0  0  0  0999 V2000
    0.1649   -0.6817    0.1255 C   0  0  0  1  0  0  0  0  0  0  0  0
    0.0885   -1.3943   -0.6690 H   0  0  0  1  0  0  0  0  0  0  0  0
    0.4215   -1.5102    1.2544 O   0  0  0  1  0  0  0  0  0  0  0  0
    0.4867   -2.4254    0.9720 H   0  0  0  1  0  0  0  0  0  0  0  0
   -0.5702   -0.3575    0.3159 C   0  0  0  1  0  0  0  0  0  0  0  0
   -0.9397   -0.8425    1.1952 H   0  0  0  1  0  0  0  0  0  0  0  0
   -1.5101   -0.8002   -0.6435 O   0  0  0  1  0  0  0  0  0  0  0  0
   -1.7870   -1.6947   -0.4319 H   0  0  0  1  0  0  0  0  0  0  0  0
   -0.6492    0.4571    0.4116 C   0  0  0  1  0  0  0  0  0  0  0  0
   -1.1460    0.6756    1.3337 H   0  0  0  1  0  0  0  0  0  0  0  0
    0.7421    0.6253    0.1268 C   0  0  0  1  0  0  0  0  0  0  0  0
    1.4994    1.0022    0.7820 H   0  0  0  1  0  0  0  0  0  0  0  0
    1.1368    1.1589   -1.1092 O   0  0  0  1  0  0  0  0  0  0  0  0
    0.6162    0.7610   -1.8109 H   0  0  0  1  0  0  0  0  0  0  0  0
    1.7635   -0.5543    1.0337 O   0  0  0  1  0  0  0  0  0  0  0  0
    2.3859   -1.1895    0.6723 H   0  0  0  1  0  0  0  0  0  0  0  0
    0.0069    0.9495    0.3172 O   0  0  0  1  0  0  0  0  0  0  0  0
    0.8210   -0.1893    0.0311 C   0  0  0  1  0  0  0  0  0  0  0  0
    1.3508   -0.4223   -0.8688 H   0  0  0  1  0  0  0  0  0  0  0  0
   -1.6151    1.0473   -0.5751 C   0  0  0  1  0  0  0  0  0  0  0  0
   -2.5478    0.5263   -0.5149 H   0  0  0  1  0  0  0  0  0  0  0  0
   -1.2162    0.9528   -1.5634 H   0  0  0  1  0  0  0  0  0  0  0  0
   -1.8220    2.4221   -0.2786 O   0  0  0  1  0  0  0  0  0  0  0  0
   -2.7155    2.5483    0.0491 H   0  0  0  1  0  0  0  0  0  0  0  0
  1  2  1  0  0  0  0
  1  3  1  0  0  0  0
  1  5  1  0  0  0  0
  1 18  1  0  0  0  0
  3  4  1  0  0  0  0
  5  6  1  0  0  0  0
  5  7  1  0  0  0  0
  5  9  1  0  0  0  0
  7  8  1  0  0  0  0
  9 10  1  0  0  0  0
  9 17  1  0  0  0  0
  9 20  1  0  0  0  0
 11 12  1  0  0  0  0
 11 13  1  0  0  0  0
 11 17  1  0  0  0  0
 11 18  1  0  0  0  0
 13 14  1  0  0  0  0
 15 16  1  0  0  0  0
 15 18  1  0  0  0  0
 18 19  1  0  0  0  0
 20 21  1  0  0  0  0
 20 22  1  0  0  0  0
 20 23  1  0  0  0  0
 23 24  1  0  0  0  0
M  END
> <ConfClashScore>
0.0648301 

> <ConfOneFourInteractionScore>
-0.951485 

> <ConfScore>
7.16612 

> <ConfScorePBest>
0.00922749 

> <ConfTolerance>
0.25 

$$$$
L12.****
  PyMOL2.4          3D                             0

 24 24  0  0  0  0  0  0  0  0999 V2000
    0.1248   -0.7437    0.0911 C   0  0  0  1  0  0  0  0  0  0  0  0
   -0.1720   -1.6623   -0.3704 H   0  0  0  1  0  0  0  0  0  0  0  0
    0.8336   -1.2065    1.2357 O   0  0  0  1  0  0  0  0  0  0  0  0
    0.4272   -2.0136    1.5596 H   0  0  0  1  0  0  0  0  0  0  0  0
   -0.5322   -0.3353    0.3800 C   0  0  0  1  0  0  0  0  0  0  0  0
   -0.7448   -0.5656    1.4031 H   0  0  0  1  0  0  0  0  0  0  0  0
   -1.5921   -0.9887   -0.3208 O   0  0  0  1  0  0  0  0  0  0  0  0
   -1.9785   -1.6648    0.2406 H   0  0  0  1  0  0  0  0  0  0  0  0
   -0.6297    0.4642    0.2062 C   0  0  0  1  0  0  0  0  0  0  0  0
   -0.7396    0.9983    1.1268 H   0  0  0  1  0  0  0  0  0  0  0  0
    0.5865    0.4490   -0.5458 C   0  0  0  1  0  0  0  0  0  0  0  0
    0.7870    0.6721   -1.5729 H   0  0  0  1  0  0  0  0  0  0  0  0
    1.6444    1.0588    0.1216 O   0  0  0  1  0  0  0  0  0  0  0  0
    1.3447    1.3730    0.9778 H   0  0  0  1  0  0  0  0  0  0  0  0
    1.9525   -0.4129    0.2713 O   0  0  0  1  0  0  0  0  0  0  0  0
    2.4090   -1.2136    0.0026 H   0  0  0  1  0  0  0  0  0  0  0  0
   -0.0705    0.8574   -0.2569 O   0  0  0  1  0  0  0  0  0  0  0  0
    0.6840   -0.3505   -0.3720 C   0  0  0  1  0  0  0  0  0  0  0  0
    0.8723   -0.9024   -1.2691 H   0  0  0  1  0  0  0  0  0  0  0  0
   -1.9396    0.8021   -0.4457 C   0  0  0  1  0  0  0  0  0  0  0  0
   -2.7326    0.3002    0.0684 H   0  0  0  1  0  0  0  0  0  0  0  0
   -1.9202    0.4860   -1.4677 H   0  0  0  1  0  0  0  0  0  0  0  0
   -2.1542    2.2061   -0.3893 O   0  0  0  1  0  0  0  0  0  0  0  0
   -2.8549    2.3983    0.2380 H   0  0  0  1  0  0  0  0  0  0  0  0
  1  2  1  0  0  0  0
  1  3  1  0  0  0  0
  1  5  1  0  0  0  0
  1 18  1  0  0  0  0
  3  4  1  0  0  0  0
  5  6  1  0  0  0  0
  5  7  1  0  0  0  0
  5  9  1  0  0  0  0
  7  8  1  0  0  0  0
  9 10  1  0  0  0  0
  9 17  1  0  0  0  0
  9 20  1  0  0  0  0
 11 12  1  0  0  0  0
 11 13  1  0  0  0  0
 11 17  1  0  0  0  0
 11 18  1  0  0  0  0
 13 14  1  0  0  0  0
 15 16  1  0  0  0  0
 15 18  1  0  0  0  0
 18 19  1  0  0  0  0
 20 21  1  0  0  0  0
 20 22  1  0  0  0  0
 20 23  1  0  0  0  0
 23 24  1  0  0  0  0
M  END
> <ConfClashScore>
0.0655237 

> <ConfOneFourInteractionScore>
-0.95019 

> <ConfScore>
7.22469 

> <ConfScorePBest>
0.00912449 

> <ConfTolerance>
0.25 

$$$$
L12.****
  PyMOL2.4          3D                             0

 24 24  0  0  0  0  0  0  0  0999 V2000
    0.1461   -0.8235   -0.0474 C   0  0  0  1  0  0  0  0  0  0  0  0
    0.3623   -1.2477   -1.0056 H   0  0  0  1  0  0  0  0  0  0  0  0
    0.0424   -1.9894    0.7629 O   0  0  0  1  0  0  0  0  0  0  0  0
    0.1013   -1.7425    1.6887 H   0  0  0  1  0  0  0  0  0  0  0  0
   -0.5843   -0.4388   -0.0651 C   0  0  0  1  0  0  0  0  0  0  0  0
   -0.9917   -0.4984   -1.0527 H   0  0  0  1  0  0  0  0  0  0  0  0
   -1.4746   -1.2787    0.6488 O   0  0  0  1  0  0  0  0  0  0  0  0
   -2.2373   -1.4768    0.1005 H   0  0  0  1  0  0  0  0  0  0  0  0
   -0.6494    0.3349    0.2109 C   0  0  0  1  0  0  0  0  0  0  0  0
   -1.4696    0.4236    0.8923 H   0  0  0  1  0  0  0  0  0  0  0  0
    0.7461    0.3411    0.5231 C   0  0  0  1  0  0  0  0  0  0  0  0
    1.2554    0.4835    1.4532 H   0  0  0  1  0  0  0  0  0  0  0  0
    1.5375    1.0586   -0.3789 O   0  0  0  1  0  0  0  0  0  0  0  0
    1.0881    1.8708   -0.6238 H   0  0  0  1  0  0  0  0  0  0  0  0
    1.7225   -0.2817   -0.8363 O   0  0  0  1  0  0  0  0  0  0  0  0
    2.5869   -0.6079   -0.5757 H   0  0  0  1  0  0  0  0  0  0  0  0
    0.0157    0.7257    0.5053 O   0  0  0  1  0  0  0  0  0  0  0  0
    0.8112   -0.4326    0.2470 C   0  0  0  1  0  0  0  0  0  0  0  0
    1.3628   -1.0492    0.9257 H   0  0  0  1  0  0  0  0  0  0  0  0
   -1.1042    1.2441   -0.9101 C   0  0  0  1  0  0  0  0  0  0  0  0
   -0.4904    1.1069   -1.7757 H   0  0  0  1  0  0  0  0  0  0  0  0
   -1.0631    2.2679   -0.6017 H   0  0  0  1  0  0  0  0  0  0  0  0
   -2.4611    0.8567   -1.1889 O   0  0  0  1  0  0  0  0  0  0  0  0
   -2.8853    1.5348   -1.7197 H   0  0  0  1  0  0  0  0  0  0  0  0
  1  2  1  0  0  0  0
  1  3  1  0  0  0  0
  1  5  1  0  0  0  0
  1 18  1  0  0  0  0
  3  4  1  0  0  0  0
  5  6  1  0  0  0  0
  5  7  1  0  0  0  0
  5  9  1  0  0  0  0
  7  8  1  0  0  0  0
  9 10  1  0  0  0  0
  9 17  1  0  0  0  0
  9 20  1  0  0  0  0
 11 12  1  0  0  0  0
 11 13  1  0  0  0  0
 11 17  1  0  0  0  0
 11 18  1  0  0  0  0
 13 14  1  0  0  0  0
 15 16  1  0  0  0  0
 15 18  1  0  0  0  0
 18 19  1  0  0  0  0
 20 21  1  0  0  0  0
 20 22  1  0  0  0  0
 20 23  1  0  0  0  0
 23 24  1  0  0  0  0
M  END
> <ConfClashScore>
0.0628248 

> <ConfOneFourInteractionScore>
-0.922804 

> <ConfScore>
7.23709 

> <ConfScorePBest>
0.00902149 

> <ConfTolerance>
0.25 

$$$$
L12.****
  PyMOL2.4          3D                             0

 24 24  0  0  0  0  0  0  0  0999 V2000
    0.1219   -0.7477    0.3392 C   0  0  0  1  0  0  0  0  0  0  0  0
    0.0378   -1.1341    1.3335 H   0  0  0  1  0  0  0  0  0  0  0  0
    0.4344   -1.9137   -0.4154 O   0  0  0  1  0  0  0  0  0  0  0  0
    0.2588   -2.6948    0.1144 H   0  0  0  1  0  0  0  0  0  0  0  0
   -0.6122   -0.5185    0.0385 C   0  0  0  1  0  0  0  0  0  0  0  0
   -1.0549   -1.3043   -0.5372 H   0  0  0  1  0  0  0  0  0  0  0  0
   -1.4530   -0.4861    1.1931 O   0  0  0  1  0  0  0  0  0  0  0  0
   -2.2328   -1.0238    1.0369 H   0  0  0  1  0  0  0  0  0  0  0  0
   -0.6937    0.2091   -0.3396 C   0  0  0  1  0  0  0  0  0  0  0  0
   -1.1123    0.0429   -1.3102 H   0  0  0  1  0  0  0  0  0  0  0  0
    0.6926    0.4801   -0.1171 C   0  0  0  1  0  0  0  0  0  0  0  0
    1.4763    0.6445   -0.8268 H   0  0  0  1  0  0  0  0  0  0  0  0
    1.0179    1.3818    0.9076 O   0  0  0  1  0  0  0  0  0  0  0  0
    1.7926    1.8890    0.6542 H   0  0  0  1  0  0  0  0  0  0  0  0
    1.7127   -0.9110   -0.5790 O   0  0  0  1  0  0  0  0  0  0  0  0
    2.6040   -0.6662   -0.3196 H   0  0  0  1  0  0  0  0  0  0  0  0
   -0.0414    0.7093   -0.4179 O   0  0  0  1  0  0  0  0  0  0  0  0
    0.7742   -0.2475    0.2610 C   0  0  0  1  0  0  0  0  0  0  0  0
    1.3141   -0.1568    1.1803 H   0  0  0  1  0  0  0  0  0  0  0  0
   -1.7699    1.0627    0.2670 C   0  0  0  1  0  0  0  0  0  0  0  0
   -1.4112    1.5185    1.1662 H   0  0  0  1  0  0  0  0  0  0  0  0
   -2.6293    0.4647    0.4880 H   0  0  0  1  0  0  0  0  0  0  0  0
   -2.1071    2.0643   -0.6836 O   0  0  0  1  0  0  0  0  0  0  0  0
   -2.5730    2.7794   -0.2441 H   0  0  0  1  0  0  0  0  0  0  0  0
  1  2  1  0  0  0  0
  1  3  1  0  0  0  0
  1  5  1  0  0  0  0
  1 18  1  0  0  0  0
  3  4  1  0  0  0  0
  5  6  1  0  0  0  0
  5  7  1  0  0  0  0
  5  9  1  0  0  0  0
  7  8  1  0  0  0  0
  9 10  1  0  0  0  0
  9 17  1  0  0  0  0
  9 20  1  0  0  0  0
 11 12  1  0  0  0  0
 11 13  1  0  0  0  0
 11 17  1  0  0  0  0
 11 18  1  0  0  0  0
 13 14  1  0  0  0  0
 15 16  1  0  0  0  0
 15 18  1  0  0  0  0
 18 19  1  0  0  0  0
 20 21  1  0  0  0  0
 20 22  1  0  0  0  0
 20 23  1  0  0  0  0
 23 24  1  0  0  0  0
M  END
> <ConfClashScore>
0.0658667 

> <ConfOneFourInteractionScore>
-0.922804 

> <ConfScore>
7.26314 

> <ConfScorePBest>
0.00891849 

> <ConfTolerance>
0.25 

$$$$
L12.****
  PyMOL2.4          3D                             0

 24 24  0  0  0  0  0  0  0  0999 V2000
    0.2164   -0.8176    0.1353 C   0  0  0  1  0  0  0  0  0  0  0  0
    0.3999   -1.7449   -0.3661 H   0  0  0  1  0  0  0  0  0  0  0  0
    0.0013   -1.2359    1.4801 O   0  0  0  1  0  0  0  0  0  0  0  0
   -0.0314   -2.1946    1.5161 H   0  0  0  1  0  0  0  0  0  0  0  0
   -0.4933   -0.4740   -0.1098 C   0  0  0  1  0  0  0  0  0  0  0  0
   -0.8761   -1.0361   -0.9358 H   0  0  0  1  0  0  0  0  0  0  0  0
   -1.4480   -0.7864    0.8855 O   0  0  0  1  0  0  0  0  0  0  0  0
   -1.9498   -1.5595    0.6167 H   0  0  0  1  0  0  0  0  0  0  0  0
   -0.5185    0.3267   -0.3028 C   0  0  0  1  0  0  0  0  0  0  0  0
   -0.9812    0.4616   -1.2581 H   0  0  0  1  0  0  0  0  0  0  0  0
    0.8757    0.4421   -0.0061 C   0  0  0  1  0  0  0  0  0  0  0  0
    1.6947    0.7284   -0.6323 H   0  0  0  1  0  0  0  0  0  0  0  0
    1.1574    1.0963    1.1877 O   0  0  0  1  0  0  0  0  0  0  0  0
    0.9670    2.0324    1.0928 H   0  0  0  1  0  0  0  0  0  0  0  0
    1.7377   -0.9516   -0.7971 O   0  0  0  1  0  0  0  0  0  0  0  0
    1.5051   -0.6101   -1.6636 H   0  0  0  1  0  0  0  0  0  0  0  0
    0.1660    0.7857   -0.2512 O   0  0  0  1  0  0  0  0  0  0  0  0
    0.9009   -0.3586    0.1869 C   0  0  0  1  0  0  0  0  0  0  0  0
    1.4404   -0.5392    1.0931 H   0  0  0  1  0  0  0  0  0  0  0  0
   -1.4970    1.0505    0.5917 C   0  0  0  1  0  0  0  0  0  0  0  0
   -2.4321    0.5308    0.5690 H   0  0  0  1  0  0  0  0  0  0  0  0
   -1.6318    2.0446    0.2196 H   0  0  0  1  0  0  0  0  0  0  0  0
   -1.0493    1.1244    1.9376 O   0  0  0  1  0  0  0  0  0  0  0  0
   -1.2638    1.9873    2.2997 H   0  0  0  1  0  0  0  0  0  0  0  0
  1  2  1  0  0  0  0
  1  3  1  0  0  0  0
  1  5  1  0  0  0  0
  1 18  1  0  0  0  0
  3  4  1  0  0  0  0
  5  6  1  0  0  0  0
  5  7  1  0  0  0  0
  5  9  1  0  0  0  0
  7  8  1  0  0  0  0
  9 10  1  0  0  0  0
  9 17  1  0  0  0  0
  9 20  1  0  0  0  0
 11 12  1  0  0  0  0
 11 13  1  0  0  0  0
 11 17  1  0  0  0  0
 11 18  1  0  0  0  0
 13 14  1  0  0  0  0
 15 16  1  0  0  0  0
 15 18  1  0  0  0  0
 18 19  1  0  0  0  0
 20 21  1  0  0  0  0
 20 22  1  0  0  0  0
 20 23  1  0  0  0  0
 23 24  1  0  0  0  0
M  END
> <ConfClashScore>
0.0675999 

> <ConfOneFourInteractionScore>
-0.951485 

> <ConfScore>
7.42497 

> <ConfScorePBest>
0.00881549 

> <ConfTolerance>
0.426791 

$$$$
L12.****
  PyMOL2.4          3D                             0

 24 24  0  0  0  0  0  0  0  0999 V2000
    0.1232   -0.7359    0.0674 C   0  0  0  1  0  0  0  0  0  0  0  0
   -0.2196   -1.5612   -0.5210 H   0  0  0  1  0  0  0  0  0  0  0  0
    0.7449   -1.4226    1.1485 O   0  0  0  1  0  0  0  0  0  0  0  0
    0.1621   -2.1168    1.4647 H   0  0  0  1  0  0  0  0  0  0  0  0
   -0.5334   -0.3312    0.3622 C   0  0  0  1  0  0  0  0  0  0  0  0
   -0.6926   -0.5658    1.3940 H   0  0  0  1  0  0  0  0  0  0  0  0
   -1.6072   -1.0328   -0.2670 O   0  0  0  1  0  0  0  0  0  0  0  0
   -1.8235   -1.8147    0.2463 H   0  0  0  1  0  0  0  0  0  0  0  0
   -0.6119    0.4784    0.2302 C   0  0  0  1  0  0  0  0  0  0  0  0
   -0.7622    0.9712    1.1680 H   0  0  0  1  0  0  0  0  0  0  0  0
    0.6225    0.4804   -0.4917 C   0  0  0  1  0  0  0  0  0  0  0  0
    0.8286    0.7415   -1.5086 H   0  0  0  1  0  0  0  0  0  0  0  0
    1.6891    1.0495    0.1946 O   0  0  0  1  0  0  0  0  0  0  0  0
    1.3583    1.6988    0.8196 H   0  0  0  1  0  0  0  0  0  0  0  0
    1.8852   -0.5197    0.4072 O   0  0  0  1  0  0  0  0  0  0  0  0
    2.3971   -1.2403    0.0326 H   0  0  0  1  0  0  0  0  0  0  0  0
   -0.0341    0.8852   -0.1969 O   0  0  0  1  0  0  0  0  0  0  0  0
    0.7010   -0.3291   -0.3597 C   0  0  0  1  0  0  0  0  0  0  0  0
    0.9391   -0.8439   -1.2669 H   0  0  0  1  0  0  0  0  0  0  0  0
   -1.8997    0.8242   -0.4605 C   0  0  0  1  0  0  0  0  0  0  0  0
   -1.9293    1.8765   -0.6515 H   0  0  0  1  0  0  0  0  0  0  0  0
   -2.7234    0.5514    0.1655 H   0  0  0  1  0  0  0  0  0  0  0  0
   -1.9873    0.1180   -1.6911 O   0  0  0  1  0  0  0  0  0  0  0  0
   -1.2716    0.3917   -2.2693 H   0  0  0  1  0  0  0  0  0  0  0  0
  1  2  1  0  0  0  0
  1  3  1  0  0  0  0
  1  5  1  0  0  0  0
  1 18  1  0  0  0  0
  3  4  1  0  0  0  0
  5  6  1  0  0  0  0
  5  7  1  0  0  0  0
  5  9  1  0  0  0  0
  7  8  1  0  0  0  0
  9 10  1  0  0  0  0
  9 17  1  0  0  0  0
  9 20  1  0  0  0  0
 11 12  1  0  0  0  0
 11 13  1  0  0  0  0
 11 17  1  0  0  0  0
 11 18  1  0  0  0  0
 13 14  1  0  0  0  0
 15 16  1  0  0  0  0
 15 18  1  0  0  0  0
 18 19  1  0  0  0  0
 20 21  1  0  0  0  0
 20 22  1  0  0  0  0
 20 23  1  0  0  0  0
 23 24  1  0  0  0  0
M  END
> <ConfClashScore>
0.0678886 

> <ConfOneFourInteractionScore>
-0.969113 

> <ConfScore>
7.46142 

> <ConfScorePBest>
0.00871249 

> <ConfTolerance>
0.551243 

$$$$
L12.****
  PyMOL2.4          3D                             0

 24 24  0  0  0  0  0  0  0  0999 V2000
    0.1349   -0.6147    0.5180 C   0  0  0  1  0  0  0  0  0  0  0  0
    0.1510   -0.8238    1.5672 H   0  0  0  1  0  0  0  0  0  0  0  0
    0.2537   -1.9294   -0.0151 O   0  0  0  1  0  0  0  0  0  0  0  0
    0.0944   -2.5725    0.6797 H   0  0  0  1  0  0  0  0  0  0  0  0
   -0.6072   -0.3113    0.3206 C   0  0  0  1  0  0  0  0  0  0  0  0
   -1.2718   -0.3487    1.1584 H   0  0  0  1  0  0  0  0  0  0  0  0
   -1.1336   -1.3392   -0.5206 O   0  0  0  1  0  0  0  0  0  0  0  0
   -1.7515   -1.8775   -0.0205 H   0  0  0  1  0  0  0  0  0  0  0  0
   -0.6662    0.4109   -0.0717 C   0  0  0  1  0  0  0  0  0  0  0  0
   -1.3534    1.0504    0.4417 H   0  0  0  1  0  0  0  0  0  0  0  0
    0.7590    0.5281   -0.0702 C   0  0  0  1  0  0  0  0  0  0  0  0
    1.4480    0.5973   -0.8859 H   0  0  0  1  0  0  0  0  0  0  0  0
    1.2577    1.4552    0.8334 O   0  0  0  1  0  0  0  0  0  0  0  0
    2.1713    1.6550    0.6163 H   0  0  0  1  0  0  0  0  0  0  0  0
    1.5628   -1.0788   -0.5081 O   0  0  0  1  0  0  0  0  0  0  0  0
    1.2970   -0.9598   -1.4228 H   0  0  0  1  0  0  0  0  0  0  0  0
    0.0169    0.8315   -0.2676 O   0  0  0  1  0  0  0  0  0  0  0  0
    0.8180   -0.1941    0.3221 C   0  0  0  1  0  0  0  0  0  0  0  0
    1.4591   -0.1057    1.1742 H   0  0  0  1  0  0  0  0  0  0  0  0
   -1.3731    0.2423   -1.3861 C   0  0  0  1  0  0  0  0  0  0  0  0
   -2.2213   -0.3986   -1.2651 H   0  0  0  1  0  0  0  0  0  0  0  0
   -0.7060   -0.1805   -2.1080 H   0  0  0  1  0  0  0  0  0  0  0  0
   -1.7964    1.5336   -1.8129 O   0  0  0  1  0  0  0  0  0  0  0  0
   -2.4903    1.4425   -2.4700 H   0  0  0  1  0  0  0  0  0  0  0  0
  1  2  1  0  0  0  0
  1  3  1  0  0  0  0
  1  5  1  0  0  0  0
  1 18  1  0  0  0  0
  3  4  1  0  0  0  0
  5  6  1  0  0  0  0
  5  7  1  0  0  0  0
  5  9  1  0  0  0  0
  7  8  1  0  0  0  0
  9 10  1  0  0  0  0
  9 17  1  0  0  0  0
  9 20  1  0  0  0  0
 11 12  1  0  0  0  0
 11 13  1  0  0  0  0
 11 17  1  0  0  0  0
 11 18  1  0  0  0  0
 13 14  1  0  0  0  0
 15 16  1  0  0  0  0
 15 18  1  0  0  0  0
 18 19  1  0  0  0  0
 20 21  1  0  0  0  0
 20 22  1  0  0  0  0
 20 23  1  0  0  0  0
 23 24  1  0  0  0  0
M  END
> <ConfClashScore>
0.0683049 

> <ConfOneFourInteractionScore>
-0.922804 

> <ConfScore>
7.52822 

> <ConfScorePBest>
0.00860949 

> <ConfTolerance>
0.580883 

$$$$
L12.****
  PyMOL2.4          3D                             0

 24 24  0  0  0  0  0  0  0  0999 V2000
    0.0998   -0.8281    0.0348 C   0  0  0  1  0  0  0  0  0  0  0  0
    0.1886   -1.6882   -0.5954 H   0  0  0  1  0  0  0  0  0  0  0  0
   -0.0032   -1.4322    1.3197 O   0  0  0  1  0  0  0  0  0  0  0  0
    0.6372   -2.1437    1.3916 H   0  0  0  1  0  0  0  0  0  0  0  0
   -0.6138   -0.4419   -0.1181 C   0  0  0  1  0  0  0  0  0  0  0  0
   -1.2166   -0.9857   -0.8151 H   0  0  0  1  0  0  0  0  0  0  0  0
   -1.3116   -0.6446    1.1121 O   0  0  0  1  0  0  0  0  0  0  0  0
   -1.9752   -1.3283    0.9952 H   0  0  0  1  0  0  0  0  0  0  0  0
   -0.6193    0.3669   -0.2756 C   0  0  0  1  0  0  0  0  0  0  0  0
   -1.1524    0.5508   -1.1849 H   0  0  0  1  0  0  0  0  0  0  0  0
    0.8025    0.4053   -0.1277 C   0  0  0  1  0  0  0  0  0  0  0  0
    1.5610    0.6791   -0.8311 H   0  0  0  1  0  0  0  0  0  0  0  0
    1.2269    1.0278    1.0387 O   0  0  0  1  0  0  0  0  0  0  0  0
    0.7515    1.8541    1.1522 H   0  0  0  1  0  0  0  0  0  0  0  0
    1.5778   -0.9536   -1.0339 O   0  0  0  1  0  0  0  0  0  0  0  0
    2.4940   -0.6830   -0.9396 H   0  0  0  1  0  0  0  0  0  0  0  0
    0.0888    0.7915   -0.2806 O   0  0  0  1  0  0  0  0  0  0  0  0
    0.8080   -0.4035    0.0298 C   0  0  0  1  0  0  0  0  0  0  0  0
    1.4076   -0.6323    0.8859 H   0  0  0  1  0  0  0  0  0  0  0  0
   -1.4847    1.1045    0.7052 C   0  0  0  1  0  0  0  0  0  0  0  0
   -0.9647    1.2021    1.6352 H   0  0  0  1  0  0  0  0  0  0  0  0
   -2.3923    0.5590    0.8591 H   0  0  0  1  0  0  0  0  0  0  0  0
   -1.7903    2.3963    0.1969 O   0  0  0  1  0  0  0  0  0  0  0  0
   -2.5553    2.3408   -0.3805 H   0  0  0  1  0  0  0  0  0  0  0  0
  1  2  1  0  0  0  0
  1  3  1  0  0  0  0
  1  5  1  0  0  0  0
  1 18  1  0  0  0  0
  3  4  1  0  0  0  0
  5  6  1  0  0  0  0
  5  7  1  0  0  0  0
  5  9  1  0  0  0  0
  7  8  1  0  0  0  0
  9 10  1  0  0  0  0
  9 17  1  0  0  0  0
  9 20  1  0  0  0  0
 11 12  1  0  0  0  0
 11 13  1  0  0  0  0
 11 17  1  0  0  0  0
 11 18  1  0  0  0  0
 13 14  1  0  0  0  0
 15 16  1  0  0  0  0
 15 18  1  0  0  0  0
 18 19  1  0  0  0  0
 20 21  1  0  0  0  0
 20 22  1  0  0  0  0
 20 23  1  0  0  0  0
 23 24  1  0  0  0  0
M  END
> <ConfClashScore>
0.0698064 

> <ConfOneFourInteractionScore>
-0.95019 

> <ConfScore>
7.65132 

> <ConfScorePBest>
0.00850649 

> <ConfTolerance>
0.25 

$$$$
L12.****
  PyMOL2.4          3D                             0

 24 24  0  0  0  0  0  0  0  0999 V2000
    0.1239   -0.7776   -0.1478 C   0  0  0  1  0  0  0  0  0  0  0  0
    0.1537   -1.5963   -0.8361 H   0  0  0  1  0  0  0  0  0  0  0  0
    0.3980   -1.4295    1.0878 O   0  0  0  1  0  0  0  0  0  0  0  0
    0.1858   -2.3626    1.0118 H   0  0  0  1  0  0  0  0  0  0  0  0
   -0.6393   -0.4655   -0.1037 C   0  0  0  1  0  0  0  0  0  0  0  0
   -1.3004   -1.0026   -0.7513 H   0  0  0  1  0  0  0  0  0  0  0  0
   -1.1179   -0.8557    1.1847 O   0  0  0  1  0  0  0  0  0  0  0  0
   -1.8790   -1.4319    1.0828 H   0  0  0  1  0  0  0  0  0  0  0  0
   -0.7576    0.3464   -0.1800 C   0  0  0  1  0  0  0  0  0  0  0  0
   -1.5209    0.5438   -0.9033 H   0  0  0  1  0  0  0  0  0  0  0  0
    0.6502    0.5361   -0.3446 C   0  0  0  1  0  0  0  0  0  0  0  0
    1.2353    0.9726   -1.1269 H   0  0  0  1  0  0  0  0  0  0  0  0
    1.2265    1.0693    0.8248 O   0  0  0  1  0  0  0  0  0  0  0  0
    1.9509    1.6529    0.5876 H   0  0  0  1  0  0  0  0  0  0  0  0
    1.5543   -0.4403    0.9073 O   0  0  0  1  0  0  0  0  0  0  0  0
    2.3060   -1.0052    0.7138 H   0  0  0  1  0  0  0  0  0  0  0  0
   -0.1130    0.8482   -0.3005 O   0  0  0  1  0  0  0  0  0  0  0  0
    0.7685   -0.2758   -0.2683 C   0  0  0  1  0  0  0  0  0  0  0  0
    1.4191   -0.6507   -1.0306 H   0  0  0  1  0  0  0  0  0  0  0  0
   -1.3772    0.9395    1.0554 C   0  0  0  1  0  0  0  0  0  0  0  0
   -0.6622    0.9009    1.8505 H   0  0  0  1  0  0  0  0  0  0  0  0
   -2.2372    0.3605    1.3200 H   0  0  0  1  0  0  0  0  0  0  0  0
   -1.7780    2.2932    0.8666 O   0  0  0  1  0  0  0  0  0  0  0  0
   -2.4468    2.3365    0.1792 H   0  0  0  1  0  0  0  0  0  0  0  0
  1  2  1  0  0  0  0
  1  3  1  0  0  0  0
  1  5  1  0  0  0  0
  1 18  1  0  0  0  0
  3  4  1  0  0  0  0
  5  6  1  0  0  0  0
  5  7  1  0  0  0  0
  5  9  1  0  0  0  0
  7  8  1  0  0  0  0
  9 10  1  0  0  0  0
  9 17  1  0  0  0  0
  9 20  1  0  0  0  0
 11 12  1  0  0  0  0
 11 13  1  0  0  0  0
 11 17  1  0  0  0  0
 11 18  1  0  0  0  0
 13 14  1  0  0  0  0
 15 16  1  0  0  0  0
 15 18  1  0  0  0  0
 18 19  1  0  0  0  0
 20 21  1  0  0  0  0
 20 22  1  0  0  0  0
 20 23  1  0  0  0  0
 23 24  1  0  0  0  0
M  END
> <ConfClashScore>
0.0702167 

> <ConfOneFourInteractionScore>
-0.951485 

> <ConfScore>
7.6602 

> <ConfScorePBest>
0.00840348 

> <ConfTolerance>
0.537447 

$$$$
L12.****
  PyMOL2.4          3D                             0

 24 24  0  0  0  0  0  0  0  0999 V2000
    0.2037   -0.6935    0.2254 C   0  0  0  1  0  0  0  0  0  0  0  0
    0.1802   -1.6379   -0.2770 H   0  0  0  1  0  0  0  0  0  0  0  0
    0.5657   -1.0702    1.5497 O   0  0  0  1  0  0  0  0  0  0  0  0
    0.8410   -1.9898    1.5574 H   0  0  0  1  0  0  0  0  0  0  0  0
   -0.5504   -0.3598    0.2667 C   0  0  0  1  0  0  0  0  0  0  0  0
   -0.9776   -0.5435    1.2304 H   0  0  0  1  0  0  0  0  0  0  0  0
   -1.3566   -1.1987   -0.5625 O   0  0  0  1  0  0  0  0  0  0  0  0
   -2.0773   -1.5642   -0.0442 H   0  0  0  1  0  0  0  0  0  0  0  0
   -0.6645    0.4282    0.0545 C   0  0  0  1  0  0  0  0  0  0  0  0
   -1.1986    0.9428    0.8258 H   0  0  0  1  0  0  0  0  0  0  0  0
    0.7293    0.5506   -0.2407 C   0  0  0  1  0  0  0  0  0  0  0  0
    1.1593    0.7368   -1.2026 H   0  0  0  1  0  0  0  0  0  0  0  0
    1.5813    1.2982    0.5986 O   0  0  0  1  0  0  0  0  0  0  0  0
    1.1192    1.5172    1.4111 H   0  0  0  1  0  0  0  0  0  0  0  0
    1.2669   -0.9009   -1.2147 O   0  0  0  1  0  0  0  0  0  0  0  0
    1.5438   -1.7948   -1.0004 H   0  0  0  1  0  0  0  0  0  0  0  0
   -0.0248    0.8844   -0.1994 O   0  0  0  1  0  0  0  0  0  0  0  0
    0.8434   -0.2374   -0.0285 C   0  0  0  1  0  0  0  0  0  0  0  0
    1.6909   -0.3547    0.6141 H   0  0  0  1  0  0  0  0  0  0  0  0
   -1.6079    0.6021   -1.1008 C   0  0  0  1  0  0  0  0  0  0  0  0
   -1.9213    1.6238   -1.1534 H   0  0  0  1  0  0  0  0  0  0  0  0
   -2.4622   -0.0267   -0.9600 H   0  0  0  1  0  0  0  0  0  0  0  0
   -0.9520    0.2450   -2.3136 O   0  0  0  1  0  0  0  0  0  0  0  0
   -0.2240    0.8499   -2.4743 H   0  0  0  1  0  0  0  0  0  0  0  0
  1  2  1  0  0  0  0
  1  3  1  0  0  0  0
  1  5  1  0  0  0  0
  1 18  1  0  0  0  0
  3  4  1  0  0  0  0
  5  6  1  0  0  0  0
  5  7  1  0  0  0  0
  5  9  1  0  0  0  0
  7  8  1  0  0  0  0
  9 10  1  0  0  0  0
  9 17  1  0  0  0  0
  9 20  1  0  0  0  0
 11 12  1  0  0  0  0
 11 13  1  0  0  0  0
 11 17  1  0  0  0  0
 11 18  1  0  0  0  0
 13 14  1  0  0  0  0
 15 16  1  0  0  0  0
 15 18  1  0  0  0  0
 18 19  1  0  0  0  0
 20 21  1  0  0  0  0
 20 22  1  0  0  0  0
 20 23  1  0  0  0  0
 23 24  1  0  0  0  0
M  END
> <ConfClashScore>
0.0712335 

> <ConfOneFourInteractionScore>
-0.978871 

> <ConfScore>
7.79826 

> <ConfScorePBest>
0.00830048 

> <ConfTolerance>
0.25 

$$$$
L12.****
  PyMOL2.4          3D                             0

 24 24  0  0  0  0  0  0  0  0999 V2000
    0.1962   -0.7245    0.2902 C   0  0  0  1  0  0  0  0  0  0  0  0
    0.3772   -1.6741   -0.1685 H   0  0  0  1  0  0  0  0  0  0  0  0
    0.2561   -1.0548    1.6737 O   0  0  0  1  0  0  0  0  0  0  0  0
   -0.1968   -1.8877    1.8241 H   0  0  0  1  0  0  0  0  0  0  0  0
   -0.5611   -0.4527    0.1047 C   0  0  0  1  0  0  0  0  0  0  0  0
   -1.2101   -0.6163    0.9396 H   0  0  0  1  0  0  0  0  0  0  0  0
   -1.1489   -1.2989   -0.8680 O   0  0  0  1  0  0  0  0  0  0  0  0
   -1.6726   -1.9743   -0.4307 H   0  0  0  1  0  0  0  0  0  0  0  0
   -0.6662    0.3146   -0.1766 C   0  0  0  1  0  0  0  0  0  0  0  0
   -1.2786    0.3173   -1.0540 H   0  0  0  1  0  0  0  0  0  0  0  0
    0.7431    0.5403   -0.0877 C   0  0  0  1  0  0  0  0  0  0  0  0
    1.4334    0.7593   -0.8754 H   0  0  0  1  0  0  0  0  0  0  0  0
    1.1838    1.3727    0.9325 O   0  0  0  1  0  0  0  0  0  0  0  0
    2.1303    1.5095    0.8483 H   0  0  0  1  0  0  0  0  0  0  0  0
    1.6946   -0.9127   -0.7230 O   0  0  0  1  0  0  0  0  0  0  0  0
    1.2113   -1.0920   -1.5328 H   0  0  0  1  0  0  0  0  0  0  0  0
   -0.0142    0.8120   -0.2732 O   0  0  0  1  0  0  0  0  0  0  0  0
    0.8482   -0.2271    0.1936 C   0  0  0  1  0  0  0  0  0  0  0  0
    1.4480   -0.2217    1.0797 H   0  0  0  1  0  0  0  0  0  0  0  0
   -1.5069    1.1261    0.7666 C   0  0  0  1  0  0  0  0  0  0  0  0
   -1.7562    0.5325    1.6212 H   0  0  0  1  0  0  0  0  0  0  0  0
   -2.4040    1.4319    0.2701 H   0  0  0  1  0  0  0  0  0  0  0  0
   -0.7830    2.2757    1.1848 O   0  0  0  1  0  0  0  0  0  0  0  0
   -1.3973    2.9499    1.4843 H   0  0  0  1  0  0  0  0  0  0  0  0
  1  2  1  0  0  0  0
  1  3  1  0  0  0  0
  1  5  1  0  0  0  0
  1 18  1  0  0  0  0
  3  4  1  0  0  0  0
  5  6  1  0  0  0  0
  5  7  1  0  0  0  0
  5  9  1  0  0  0  0
  7  8  1  0  0  0  0
  9 10  1  0  0  0  0
  9 17  1  0  0  0  0
  9 20  1  0  0  0  0
 11 12  1  0  0  0  0
 11 13  1  0  0  0  0
 11 17  1  0  0  0  0
 11 18  1  0  0  0  0
 13 14  1  0  0  0  0
 15 16  1  0  0  0  0
 15 18  1  0  0  0  0
 18 19  1  0  0  0  0
 20 21  1  0  0  0  0
 20 22  1  0  0  0  0
 20 23  1  0  0  0  0
 23 24  1  0  0  0  0
M  END
> <ConfClashScore>
0.0677953 

> <ConfOneFourInteractionScore>
-0.980166 

> <ConfScore>
7.80034 

> <ConfScorePBest>
0.00819748 

> <ConfTolerance>
0.602777 

$$$$
L12.****
  PyMOL2.4          3D                             0

 24 24  0  0  0  0  0  0  0  0999 V2000
    0.0943   -0.6341    0.5568 C   0  0  0  1  0  0  0  0  0  0  0  0
    0.0627   -0.7785    1.6165 H   0  0  0  1  0  0  0  0  0  0  0  0
    0.2259   -1.9692    0.0805 O   0  0  0  1  0  0  0  0  0  0  0  0
    0.5979   -1.9585   -0.8044 H   0  0  0  1  0  0  0  0  0  0  0  0
   -0.6259   -0.3433    0.2766 C   0  0  0  1  0  0  0  0  0  0  0  0
   -1.2929   -0.1771    1.0966 H   0  0  0  1  0  0  0  0  0  0  0  0
   -1.2857   -1.4095   -0.4086 O   0  0  0  1  0  0  0  0  0  0  0  0
   -1.8004   -1.9232    0.2182 H   0  0  0  1  0  0  0  0  0  0  0  0
   -0.6390    0.3061   -0.2304 C   0  0  0  1  0  0  0  0  0  0  0  0
   -1.2436    0.0971   -1.0882 H   0  0  0  1  0  0  0  0  0  0  0  0
    0.7883    0.3756   -0.1783 C   0  0  0  1  0  0  0  0  0  0  0  0
    1.4402    1.1584    0.1492 H   0  0  0  1  0  0  0  0  0  0  0  0
    1.4333   -0.1104   -1.3196 O   0  0  0  1  0  0  0  0  0  0  0  0
    2.3834   -0.0265   -1.2109 H   0  0  0  1  0  0  0  0  0  0  0  0
    1.3880    0.2940    1.4950 O   0  0  0  1  0  0  0  0  0  0  0  0
    0.7777    0.9229    1.8870 H   0  0  0  1  0  0  0  0  0  0  0  0
    0.0681    0.6663   -0.4585 O   0  0  0  1  0  0  0  0  0  0  0  0
    0.8014   -0.2738    0.3287 C   0  0  0  1  0  0  0  0  0  0  0  0
    1.5343   -0.9943    0.0310 H   0  0  0  1  0  0  0  0  0  0  0  0
   -1.4410    1.3930    0.4256 C   0  0  0  1  0  0  0  0  0  0  0  0
   -1.5936    1.1496    1.4563 H   0  0  0  1  0  0  0  0  0  0  0  0
   -2.3880    1.4814   -0.0646 H   0  0  0  1  0  0  0  0  0  0  0  0
   -0.7425    2.6273    0.3300 O   0  0  0  1  0  0  0  0  0  0  0  0
   -1.3729    3.3506    0.2975 H   0  0  0  1  0  0  0  0  0  0  0  0
  1  2  1  0  0  0  0
  1  3  1  0  0  0  0
  1  5  1  0  0  0  0
  1 18  1  0  0  0  0
  3  4  1  0  0  0  0
  5  6  1  0  0  0  0
  5  7  1  0  0  0  0
  5  9  1  0  0  0  0
  7  8  1  0  0  0  0
  9 10  1  0  0  0  0
  9 17  1  0  0  0  0
  9 20  1  0  0  0  0
 11 12  1  0  0  0  0
 11 13  1  0  0  0  0
 11 17  1  0  0  0  0
 11 18  1  0  0  0  0
 13 14  1  0  0  0  0
 15 16  1  0  0  0  0
 15 18  1  0  0  0  0
 18 19  1  0  0  0  0
 20 21  1  0  0  0  0
 20 22  1  0  0  0  0
 20 23  1  0  0  0  0
 23 24  1  0  0  0  0
M  END
> <ConfClashScore>
0.0683163 

> <ConfOneFourInteractionScore>
-0.980166 

> <ConfScore>
7.81535 

> <ConfScorePBest>
0.00809448 

> <ConfTolerance>
0.555248 

$$$$
L12.****
  PyMOL2.4          3D                             0

 24 24  0  0  0  0  0  0  0  0999 V2000
    0.2053   -0.8132    0.1136 C   0  0  0  1  0  0  0  0  0  0  0  0
    0.6645   -1.5076   -0.5586 H   0  0  0  1  0  0  0  0  0  0  0  0
   -0.1509   -1.6440    1.2133 O   0  0  0  1  0  0  0  0  0  0  0  0
    0.4436   -2.3967    1.2522 H   0  0  0  1  0  0  0  0  0  0  0  0
   -0.5060   -0.5221   -0.1882 C   0  0  0  1  0  0  0  0  0  0  0  0
   -0.7272   -0.9393   -1.1484 H   0  0  0  1  0  0  0  0  0  0  0  0
   -1.4910   -1.1363    0.6448 O   0  0  0  1  0  0  0  0  0  0  0  0
   -2.3476   -1.0929    0.2136 H   0  0  0  1  0  0  0  0  0  0  0  0
   -0.6639    0.2863   -0.1639 C   0  0  0  1  0  0  0  0  0  0  0  0
   -1.6001    0.4337    0.3329 H   0  0  0  1  0  0  0  0  0  0  0  0
    0.6004    0.5144    0.4641 C   0  0  0  1  0  0  0  0  0  0  0  0
    0.7701    0.8970    1.4488 H   0  0  0  1  0  0  0  0  0  0  0  0
    1.6165    1.1345   -0.2632 O   0  0  0  1  0  0  0  0  0  0  0  0
    2.1377    1.6884    0.3226 H   0  0  0  1  0  0  0  0  0  0  0  0
    1.9120   -0.3920   -0.3885 O   0  0  0  1  0  0  0  0  0  0  0  0
    1.6425   -0.5551   -1.2954 H   0  0  0  1  0  0  0  0  0  0  0  0
   -0.1109    0.8055    0.1623 O   0  0  0  1  0  0  0  0  0  0  0  0
    0.7583   -0.2940    0.4398 C   0  0  0  1  0  0  0  0  0  0  0  0
    1.1231   -0.6508    1.3802 H   0  0  0  1  0  0  0  0  0  0  0  0
   -1.0097    0.7989   -1.5190 C   0  0  0  1  0  0  0  0  0  0  0  0
   -0.9038   -0.0051   -2.2170 H   0  0  0  1  0  0  0  0  0  0  0  0
   -0.3209    1.5796   -1.7663 H   0  0  0  1  0  0  0  0  0  0  0  0
   -2.3187    1.3136   -1.6357 O   0  0  0  1  0  0  0  0  0  0  0  0
   -2.4513    1.6540   -2.5235 H   0  0  0  1  0  0  0  0  0  0  0  0
  1  2  1  0  0  0  0
  1  3  1  0  0  0  0
  1  5  1  0  0  0  0
  1 18  1  0  0  0  0
  3  4  1  0  0  0  0
  5  6  1  0  0  0  0
  5  7  1  0  0  0  0
  5  9  1  0  0  0  0
  7  8  1  0  0  0  0
  9 10  1  0  0  0  0
  9 17  1  0  0  0  0
  9 20  1  0  0  0  0
 11 12  1  0  0  0  0
 11 13  1  0  0  0  0
 11 17  1  0  0  0  0
 11 18  1  0  0  0  0
 13 14  1  0  0  0  0
 15 16  1  0  0  0  0
 15 18  1  0  0  0  0
 18 19  1  0  0  0  0
 20 21  1  0  0  0  0
 20 22  1  0  0  0  0
 20 23  1  0  0  0  0
 23 24  1  0  0  0  0
M  END
> <ConfClashScore>
0.0684022 

> <ConfOneFourInteractionScore>
-0.922804 

> <ConfScore>
7.8712 

> <ConfScorePBest>
0.00799148 

> <ConfTolerance>
0.588971 

$$$$
L12.****
  PyMOL2.4          3D                             0

 24 24  0  0  0  0  0  0  0  0999 V2000
    0.0468   -0.7349    0.2853 C   0  0  0  1  0  0  0  0  0  0  0  0
   -0.2812   -1.3543    1.0938 H   0  0  0  1  0  0  0  0  0  0  0  0
    0.6220   -1.6919   -0.5979 O   0  0  0  1  0  0  0  0  0  0  0  0
    0.7967   -2.5055   -0.1192 H   0  0  0  1  0  0  0  0  0  0  0  0
   -0.5993   -0.4549   -0.1459 C   0  0  0  1  0  0  0  0  0  0  0  0
   -0.6658   -1.0095   -1.0585 H   0  0  0  1  0  0  0  0  0  0  0  0
   -1.7573   -0.9193    0.5288 O   0  0  0  1  0  0  0  0  0  0  0  0
   -1.5790   -0.9747    1.4704 H   0  0  0  1  0  0  0  0  0  0  0  0
   -0.6611    0.3479   -0.3211 C   0  0  0  1  0  0  0  0  0  0  0  0
   -0.8191    0.4735   -1.3719 H   0  0  0  1  0  0  0  0  0  0  0  0
    0.5691    0.5925    0.3655 C   0  0  0  1  0  0  0  0  0  0  0  0
    0.7384    1.1909    1.2363 H   0  0  0  1  0  0  0  0  0  0  0  0
    1.7250    0.8397   -0.3935 O   0  0  0  1  0  0  0  0  0  0  0  0
    1.5291    1.4882   -1.0737 H   0  0  0  1  0  0  0  0  0  0  0  0
    1.7976   -0.6661   -0.1358 O   0  0  0  1  0  0  0  0  0  0  0  0
    2.2862   -1.2636    0.4350 H   0  0  0  1  0  0  0  0  0  0  0  0
   -0.0770    0.8726   -0.0657 O   0  0  0  1  0  0  0  0  0  0  0  0
    0.6310   -0.2102    0.5408 C   0  0  0  1  0  0  0  0  0  0  0  0
    0.8843   -0.3720    1.5677 H   0  0  0  1  0  0  0  0  0  0  0  0
   -1.9196    0.9665    0.2225 C   0  0  0  1  0  0  0  0  0  0  0  0
   -1.8882    0.9257    1.2913 H   0  0  0  1  0  0  0  0  0  0  0  0
   -2.7588    0.4054   -0.1319 H   0  0  0  1  0  0  0  0  0  0  0  0
   -2.0751    2.3216   -0.1779 O   0  0  0  1  0  0  0  0  0  0  0  0
   -1.4318    2.5303   -0.8592 H   0  0  0  1  0  0  0  0  0  0  0  0
  1  2  1  0  0  0  0
  1  3  1  0  0  0  0
  1  5  1  0  0  0  0
  1 18  1  0  0  0  0
  3  4  1  0  0  0  0
  5  6  1  0  0  0  0
  5  7  1  0  0  0  0
  5  9  1  0  0  0  0
  7  8  1  0  0  0  0
  9 10  1  0  0  0  0
  9 17  1  0  0  0  0
  9 20  1  0  0  0  0
 11 12  1  0  0  0  0
 11 13  1  0  0  0  0
 11 17  1  0  0  0  0
 11 18  1  0  0  0  0
 13 14  1  0  0  0  0
 15 16  1  0  0  0  0
 15 18  1  0  0  0  0
 18 19  1  0  0  0  0
 20 21  1  0  0  0  0
 20 22  1  0  0  0  0
 20 23  1  0  0  0  0
 23 24  1  0  0  0  0
M  END
> <ConfClashScore>
0.0724073 

> <ConfOneFourInteractionScore>
-0.971319 

> <ConfScore>
7.88153 

> <ConfScorePBest>
0.00788848 

> <ConfTolerance>
0.25 

$$$$
L12.****
  PyMOL2.4          3D                             0

 24 24  0  0  0  0  0  0  0  0999 V2000
    0.1201   -0.8078    0.2368 C   0  0  0  1  0  0  0  0  0  0  0  0
    0.0217   -1.7135   -0.3244 H   0  0  0  1  0  0  0  0  0  0  0  0
    0.3515   -1.3086    1.5492 O   0  0  0  1  0  0  0  0  0  0  0  0
    1.0424   -1.9744    1.5209 H   0  0  0  1  0  0  0  0  0  0  0  0
   -0.6044   -0.4133    0.2719 C   0  0  0  1  0  0  0  0  0  0  0  0
   -1.0204   -0.5498    1.2482 H   0  0  0  1  0  0  0  0  0  0  0  0
   -1.5363   -1.1302   -0.5139 O   0  0  0  1  0  0  0  0  0  0  0  0
   -2.3658   -1.2069   -0.0369 H   0  0  0  1  0  0  0  0  0  0  0  0
   -0.6485    0.3859    0.0763 C   0  0  0  1  0  0  0  0  0  0  0  0
   -1.1349    0.9216    0.8646 H   0  0  0  1  0  0  0  0  0  0  0  0
    0.7565    0.3982   -0.1899 C   0  0  0  1  0  0  0  0  0  0  0  0
    1.2877    0.6188   -1.0921 H   0  0  0  1  0  0  0  0  0  0  0  0
    1.5203    1.0360    0.7809 O   0  0  0  1  0  0  0  0  0  0  0  0
    1.1247    1.8845    0.9935 H   0  0  0  1  0  0  0  0  0  0  0  0
    1.2758   -1.0154   -1.1873 O   0  0  0  1  0  0  0  0  0  0  0  0
    2.2345   -0.9703   -1.2110 H   0  0  0  1  0  0  0  0  0  0  0  0
    0.0320    0.7927   -0.1548 O   0  0  0  1  0  0  0  0  0  0  0  0
    0.8005   -0.4011    0.0057 C   0  0  0  1  0  0  0  0  0  0  0  0
    1.6056   -0.5853    0.6859 H   0  0  0  1  0  0  0  0  0  0  0  0
   -1.5960    0.6538   -1.0605 C   0  0  0  1  0  0  0  0  0  0  0  0
   -1.3928   -0.0416   -1.8479 H   0  0  0  1  0  0  0  0  0  0  0  0
   -1.4349    1.6508   -1.4140 H   0  0  0  1  0  0  0  0  0  0  0  0
   -2.9605    0.5208   -0.6741 O   0  0  0  1  0  0  0  0  0  0  0  0
   -3.3897   -0.1312   -1.2330 H   0  0  0  1  0  0  0  0  0  0  0  0
  1  2  1  0  0  0  0
  1  3  1  0  0  0  0
  1  5  1  0  0  0  0
  1 18  1  0  0  0  0
  3  4  1  0  0  0  0
  5  6  1  0  0  0  0
  5  7  1  0  0  0  0
  5  9  1  0  0  0  0
  7  8  1  0  0  0  0
  9 10  1  0  0  0  0
  9 17  1  0  0  0  0
  9 20  1  0  0  0  0
 11 12  1  0  0  0  0
 11 13  1  0  0  0  0
 11 17  1  0  0  0  0
 11 18  1  0  0  0  0
 13 14  1  0  0  0  0
 15 16  1  0  0  0  0
 15 18  1  0  0  0  0
 18 19  1  0  0  0  0
 20 21  1  0  0  0  0
 20 22  1  0  0  0  0
 20 23  1  0  0  0  0
 23 24  1  0  0  0  0
M  END
> <ConfClashScore>
0.069162 

> <ConfOneFourInteractionScore>
-0.95019 

> <ConfScore>
7.89879 

> <ConfScorePBest>
0.00778548 

> <ConfTolerance>
0.587036 

$$$$
L12.****
  PyMOL2.4          3D                             0

 24 24  0  0  0  0  0  0  0  0999 V2000
    0.1064   -0.7939    0.1407 C   0  0  0  1  0  0  0  0  0  0  0  0
    0.0192   -1.6226   -0.5306 H   0  0  0  1  0  0  0  0  0  0  0  0
    0.4507   -1.4436    1.3597 O   0  0  0  1  0  0  0  0  0  0  0  0
    0.7451   -2.3382    1.1741 H   0  0  0  1  0  0  0  0  0  0  0  0
   -0.6212   -0.4135    0.2276 C   0  0  0  1  0  0  0  0  0  0  0  0
   -1.1441   -0.7559    1.0961 H   0  0  0  1  0  0  0  0  0  0  0  0
   -1.4439   -0.8999   -0.8345 O   0  0  0  1  0  0  0  0  0  0  0  0
   -2.0130   -1.5991   -0.5045 H   0  0  0  1  0  0  0  0  0  0  0  0
   -0.6709    0.4049    0.1454 C   0  0  0  1  0  0  0  0  0  0  0  0
   -1.4253    0.6372   -0.5770 H   0  0  0  1  0  0  0  0  0  0  0  0
    0.7347    0.4644   -0.1109 C   0  0  0  1  0  0  0  0  0  0  0  0
    1.4946    0.9549    0.4608 H   0  0  0  1  0  0  0  0  0  0  0  0
    1.1409    0.7228   -1.4264 O   0  0  0  1  0  0  0  0  0  0  0  0
    1.9090    1.2985   -1.4174 H   0  0  0  1  0  0  0  0  0  0  0  0
    1.7291   -0.6020    1.0070 O   0  0  0  1  0  0  0  0  0  0  0  0
    1.4134   -0.2169    1.8278 H   0  0  0  1  0  0  0  0  0  0  0  0
    0.0070    0.8448   -0.0240 O   0  0  0  1  0  0  0  0  0  0  0  0
    0.7844   -0.3540   -0.0286 C   0  0  0  1  0  0  0  0  0  0  0  0
    1.2861   -0.7738   -0.8754 H   0  0  0  1  0  0  0  0  0  0  0  0
   -1.2351    1.1011    1.3532 C   0  0  0  1  0  0  0  0  0  0  0  0
   -2.2969    1.1737    1.2428 H   0  0  0  1  0  0  0  0  0  0  0  0
   -0.8141    2.0831    1.4113 H   0  0  0  1  0  0  0  0  0  0  0  0
   -0.9484    0.4097    2.5616 O   0  0  0  1  0  0  0  0  0  0  0  0
   -1.7465    0.3455    3.0912 H   0  0  0  1  0  0  0  0  0  0  0  0
  1  2  1  0  0  0  0
  1  3  1  0  0  0  0
  1  5  1  0  0  0  0
  1 18  1  0  0  0  0
  3  4  1  0  0  0  0
  5  6  1  0  0  0  0
  5  7  1  0  0  0  0
  5  9  1  0  0  0  0
  7  8  1  0  0  0  0
  9 10  1  0  0  0  0
  9 17  1  0  0  0  0
  9 20  1  0  0  0  0
 11 12  1  0  0  0  0
 11 13  1  0  0  0  0
 11 17  1  0  0  0  0
 11 18  1  0  0  0  0
 13 14  1  0  0  0  0
 15 16  1  0  0  0  0
 15 18  1  0  0  0  0
 18 19  1  0  0  0  0
 20 21  1  0  0  0  0
 20 22  1  0  0  0  0
 20 23  1  0  0  0  0
 23 24  1  0  0  0  0
M  END
> <ConfClashScore>
0.0697566 

> <ConfOneFourInteractionScore>
-0.95967 

> <ConfScore>
7.92287 

> <ConfScorePBest>
0.00768248 

> <ConfTolerance>
0.495178 

$$$$
L12.****
  PyMOL2.4          3D                             0

 24 24  0  0  0  0  0  0  0  0999 V2000
    0.1201   -0.7495    0.3505 C   0  0  0  1  0  0  0  0  0  0  0  0
    0.2540   -1.5459   -0.3514 H   0  0  0  1  0  0  0  0  0  0  0  0
    0.1797   -1.4533    1.5866 O   0  0  0  1  0  0  0  0  0  0  0  0
   -0.3812   -2.2310    1.5399 H   0  0  0  1  0  0  0  0  0  0  0  0
   -0.6407   -0.4370    0.2770 C   0  0  0  1  0  0  0  0  0  0  0  0
   -1.3202   -0.8557    0.9896 H   0  0  0  1  0  0  0  0  0  0  0  0
   -1.0553   -1.0485   -0.9459 O   0  0  0  1  0  0  0  0  0  0  0  0
   -1.6604   -1.7689   -0.7550 H   0  0  0  1  0  0  0  0  0  0  0  0
   -0.7456    0.3752    0.1859 C   0  0  0  1  0  0  0  0  0  0  0  0
   -1.4595    0.7334    0.8979 H   0  0  0  1  0  0  0  0  0  0  0  0
    0.6708    0.5643    0.2417 C   0  0  0  1  0  0  0  0  0  0  0  0
    1.2409    1.1090    0.9650 H   0  0  0  1  0  0  0  0  0  0  0  0
    1.3271    0.8837   -0.9540 O   0  0  0  1  0  0  0  0  0  0  0  0
    2.0334    1.5087   -0.7748 H   0  0  0  1  0  0  0  0  0  0  0  0
    1.5597   -0.6163   -0.7970 O   0  0  0  1  0  0  0  0  0  0  0  0
    2.4799   -0.6976   -0.5357 H   0  0  0  1  0  0  0  0  0  0  0  0
   -0.0900    0.8768    0.1682 O   0  0  0  1  0  0  0  0  0  0  0  0
    0.7757   -0.2479    0.3327 C   0  0  0  1  0  0  0  0  0  0  0  0
    1.4413   -0.4597    1.1433 H   0  0  0  1  0  0  0  0  0  0  0  0
   -1.4627    0.6752   -1.1015 C   0  0  0  1  0  0  0  0  0  0  0  0
   -2.3136    0.0312   -1.1787 H   0  0  0  1  0  0  0  0  0  0  0  0
   -0.7967    0.4864   -1.9175 H   0  0  0  1  0  0  0  0  0  0  0  0
   -1.9037    2.0245   -1.1756 O   0  0  0  1  0  0  0  0  0  0  0  0
   -2.3932    2.2458   -0.3799 H   0  0  0  1  0  0  0  0  0  0  0  0
  1  2  1  0  0  0  0
  1  3  1  0  0  0  0
  1  5  1  0  0  0  0
  1 18  1  0  0  0  0
  3  4  1  0  0  0  0
  5  6  1  0  0  0  0
  5  7  1  0  0  0  0
  5  9  1  0  0  0  0
  7  8  1  0  0  0  0
  9 10  1  0  0  0  0
  9 17  1  0  0  0  0
  9 20  1  0  0  0  0
 11 12  1  0  0  0  0
 11 13  1  0  0  0  0
 11 17  1  0  0  0  0
 11 18  1  0  0  0  0
 13 14  1  0  0  0  0
 15 16  1  0  0  0  0
 15 18  1  0  0  0  0
 18 19  1  0  0  0  0
 20 21  1  0  0  0  0
 20 22  1  0  0  0  0
 20 23  1  0  0  0  0
 23 24  1  0  0  0  0
M  END
> <ConfClashScore>
0.0723158 

> <ConfOneFourInteractionScore>
-0.95019 

> <ConfScore>
7.92392 

> <ConfScorePBest>
0.00757948 

> <ConfTolerance>
0.25 

$$$$
L12.****
  PyMOL2.4          3D                             0

 24 24  0  0  0  0  0  0  0  0999 V2000
    0.1796   -0.7493    0.2450 C   0  0  0  1  0  0  0  0  0  0  0  0
    0.0518   -1.2465    1.1838 H   0  0  0  1  0  0  0  0  0  0  0  0
    0.5727   -1.8164   -0.6114 O   0  0  0  1  0  0  0  0  0  0  0  0
    0.2219   -2.6439   -0.2740 H   0  0  0  1  0  0  0  0  0  0  0  0
   -0.5406   -0.4776   -0.0538 C   0  0  0  1  0  0  0  0  0  0  0  0
   -0.9430   -1.1770   -0.7565 H   0  0  0  1  0  0  0  0  0  0  0  0
   -1.4238   -0.6421    1.0567 O   0  0  0  1  0  0  0  0  0  0  0  0
   -1.8018   -1.5243    1.0376 H   0  0  0  1  0  0  0  0  0  0  0  0
   -0.6031    0.2916   -0.3427 C   0  0  0  1  0  0  0  0  0  0  0  0
   -1.0468    0.2851   -1.3164 H   0  0  0  1  0  0  0  0  0  0  0  0
    0.7746    0.5193   -0.0346 C   0  0  0  1  0  0  0  0  0  0  0  0
    1.2613    1.2384    0.5907 H   0  0  0  1  0  0  0  0  0  0  0  0
    1.5998    0.4669   -1.1638 O   0  0  0  1  0  0  0  0  0  0  0  0
    2.3484    1.0552   -1.0412 H   0  0  0  1  0  0  0  0  0  0  0  0
    1.1486   -0.1972    1.6424 O   0  0  0  1  0  0  0  0  0  0  0  0
    0.5196    0.3730    2.0906 H   0  0  0  1  0  0  0  0  0  0  0  0
    0.0544    0.7909   -0.3334 O   0  0  0  1  0  0  0  0  0  0  0  0
    0.8371   -0.2499    0.2543 C   0  0  0  1  0  0  0  0  0  0  0  0
    1.6978   -0.7422   -0.1480 H   0  0  0  1  0  0  0  0  0  0  0  0
   -1.6416    1.0611    0.4377 C   0  0  0  1  0  0  0  0  0  0  0  0
   -1.4842    2.1076    0.2794 H   0  0  0  1  0  0  0  0  0  0  0  0
   -1.5264    0.8358    1.4773 H   0  0  0  1  0  0  0  0  0  0  0  0
   -2.9670    0.7351    0.0448 O   0  0  0  1  0  0  0  0  0  0  0  0
   -3.3258    1.4452   -0.4925 H   0  0  0  1  0  0  0  0  0  0  0  0
  1  2  1  0  0  0  0
  1  3  1  0  0  0  0
  1  5  1  0  0  0  0
  1 18  1  0  0  0  0
  3  4  1  0  0  0  0
  5  6  1  0  0  0  0
  5  7  1  0  0  0  0
  5  9  1  0  0  0  0
  7  8  1  0  0  0  0
  9 10  1  0  0  0  0
  9 17  1  0  0  0  0
  9 20  1  0  0  0  0
 11 12  1  0  0  0  0
 11 13  1  0  0  0  0
 11 17  1  0  0  0  0
 11 18  1  0  0  0  0
 13 14  1  0  0  0  0
 15 16  1  0  0  0  0
 15 18  1  0  0  0  0
 18 19  1  0  0  0  0
 20 21  1  0  0  0  0
 20 22  1  0  0  0  0
 20 23  1  0  0  0  0
 23 24  1  0  0  0  0
M  END
> <ConfClashScore>
0.0697844 

> <ConfOneFourInteractionScore>
-0.922804 

> <ConfScore>
7.93936 

> <ConfScorePBest>
0.00747648 

> <ConfTolerance>
0.553691 

$$$$
L12.****
  PyMOL2.4          3D                             0

 24 24  0  0  0  0  0  0  0  0999 V2000
    0.0541   -0.7610    0.0987 C   0  0  0  1  0  0  0  0  0  0  0  0
    0.0093   -1.5493   -0.6236 H   0  0  0  1  0  0  0  0  0  0  0  0
    0.1732   -1.4785    1.3225 O   0  0  0  1  0  0  0  0  0  0  0  0
    0.8736   -2.1305    1.2448 H   0  0  0  1  0  0  0  0  0  0  0  0
   -0.6709   -0.3717    0.1667 C   0  0  0  1  0  0  0  0  0  0  0  0
   -1.1679   -0.7271    1.0452 H   0  0  0  1  0  0  0  0  0  0  0  0
   -1.5329   -0.8636   -0.8406 O   0  0  0  1  0  0  0  0  0  0  0  0
   -1.7591   -1.7771   -0.6509 H   0  0  0  1  0  0  0  0  0  0  0  0
   -0.6984    0.4518    0.1636 C   0  0  0  1  0  0  0  0  0  0  0  0
   -1.4212    0.7942   -0.5471 H   0  0  0  1  0  0  0  0  0  0  0  0
    0.7240    0.4987    0.0243 C   0  0  0  1  0  0  0  0  0  0  0  0
    1.4630    0.9226    0.6717 H   0  0  0  1  0  0  0  0  0  0  0  0
    1.2360    0.7920   -1.2567 O   0  0  0  1  0  0  0  0  0  0  0  0
    1.3756    1.7384   -1.3370 H   0  0  0  1  0  0  0  0  0  0  0  0
    1.5328   -0.5740    1.1911 O   0  0  0  1  0  0  0  0  0  0  0  0
    2.2520   -1.1710    0.9724 H   0  0  0  1  0  0  0  0  0  0  0  0
   -0.0010    0.8880    0.0924 O   0  0  0  1  0  0  0  0  0  0  0  0
    0.7515   -0.3248    0.0274 C   0  0  0  1  0  0  0  0  0  0  0  0
    1.3767   -0.7034   -0.7540 H   0  0  0  1  0  0  0  0  0  0  0  0
   -1.3035    0.9611    1.4522 C   0  0  0  1  0  0  0  0  0  0  0  0
   -1.1615    0.2501    2.2391 H   0  0  0  1  0  0  0  0  0  0  0  0
   -2.3491    1.1498    1.3257 H   0  0  0  1  0  0  0  0  0  0  0  0
   -0.6036    2.1829    1.7456 O   0  0  0  1  0  0  0  0  0  0  0  0
    0.1577    1.9913    2.2981 H   0  0  0  1  0  0  0  0  0  0  0  0
  1  2  1  0  0  0  0
  1  3  1  0  0  0  0
  1  5  1  0  0  0  0
  1 18  1  0  0  0  0
  3  4  1  0  0  0  0
  5  6  1  0  0  0  0
  5  7  1  0  0  0  0
  5  9  1  0  0  0  0
  7  8  1  0  0  0  0
  9 10  1  0  0  0  0
  9 17  1  0  0  0  0
  9 20  1  0  0  0  0
 11 12  1  0  0  0  0
 11 13  1  0  0  0  0
 11 17  1  0  0  0  0
 11 18  1  0  0  0  0
 13 14  1  0  0  0  0
 15 16  1  0  0  0  0
 15 18  1  0  0  0  0
 18 19  1  0  0  0  0
 20 21  1  0  0  0  0
 20 22  1  0  0  0  0
 20 23  1  0  0  0  0
 23 24  1  0  0  0  0
M  END
> <ConfClashScore>
0.0699601 

> <ConfOneFourInteractionScore>
-0.980166 

> <ConfScore>
8.0072 

> <ConfScorePBest>
0.00737347 

> <ConfTolerance>
0.60516 

$$$$
L12.****
  PyMOL2.4          3D                             0

 24 24  0  0  0  0  0  0  0  0999 V2000
    0.1187   -0.7328   -0.0299 C   0  0  0  1  0  0  0  0  0  0  0  0
    0.3636   -1.4299   -0.8039 H   0  0  0  1  0  0  0  0  0  0  0  0
    0.0018   -1.5917    1.1016 O   0  0  0  1  0  0  0  0  0  0  0  0
    0.2723   -2.4802    0.8588 H   0  0  0  1  0  0  0  0  0  0  0  0
   -0.6359   -0.4215   -0.1540 C   0  0  0  1  0  0  0  0  0  0  0  0
   -1.0532   -0.8301   -1.0506 H   0  0  0  1  0  0  0  0  0  0  0  0
   -1.4847   -1.0009    0.8385 O   0  0  0  1  0  0  0  0  0  0  0  0
   -1.8928   -1.7956    0.4869 H   0  0  0  1  0  0  0  0  0  0  0  0
   -0.7533    0.3939   -0.1375 C   0  0  0  1  0  0  0  0  0  0  0  0
   -1.2916    0.7090   -1.0069 H   0  0  0  1  0  0  0  0  0  0  0  0
    0.6384    0.5888    0.1273 C   0  0  0  1  0  0  0  0  0  0  0  0
    1.1270    1.0466    0.9619 H   0  0  0  1  0  0  0  0  0  0  0  0
    1.3703    1.0809   -0.9661 O   0  0  0  1  0  0  0  0  0  0  0  0
    2.2963    0.8501   -0.8619 H   0  0  0  1  0  0  0  0  0  0  0  0
    1.4128   -0.5589    1.3292 O   0  0  0  1  0  0  0  0  0  0  0  0
    2.3174   -0.2384    1.3032 H   0  0  0  1  0  0  0  0  0  0  0  0
   -0.1162    0.9001    0.0032 O   0  0  0  1  0  0  0  0  0  0  0  0
    0.7558   -0.2266    0.1108 C   0  0  0  1  0  0  0  0  0  0  0  0
    1.5281   -0.4462   -0.5965 H   0  0  0  1  0  0  0  0  0  0  0  0
   -1.7077    0.7986    0.9489 C   0  0  0  1  0  0  0  0  0  0  0  0
   -1.2574    0.6192    1.9028 H   0  0  0  1  0  0  0  0  0  0  0  0
   -2.6066    0.2244    0.8646 H   0  0  0  1  0  0  0  0  0  0  0  0
   -2.0164    2.1805    0.8245 O   0  0  0  1  0  0  0  0  0  0  0  0
   -1.6137    2.5282    0.0254 H   0  0  0  1  0  0  0  0  0  0  0  0
  1  2  1  0  0  0  0
  1  3  1  0  0  0  0
  1  5  1  0  0  0  0
  1 18  1  0  0  0  0
  3  4  1  0  0  0  0
  5  6  1  0  0  0  0
  5  7  1  0  0  0  0
  5  9  1  0  0  0  0
  7  8  1  0  0  0  0
  9 10  1  0  0  0  0
  9 17  1  0  0  0  0
  9 20  1  0  0  0  0
 11 12  1  0  0  0  0
 11 13  1  0  0  0  0
 11 17  1  0  0  0  0
 11 18  1  0  0  0  0
 13 14  1  0  0  0  0
 15 16  1  0  0  0  0
 15 18  1  0  0  0  0
 18 19  1  0  0  0  0
 20 21  1  0  0  0  0
 20 22  1  0  0  0  0
 20 23  1  0  0  0  0
 23 24  1  0  0  0  0
M  END
> <ConfClashScore>
0.0743675 

> <ConfOneFourInteractionScore>
-0.951485 

> <ConfScore>
8.10261 

> <ConfScorePBest>
0.00727047 

> <ConfTolerance>
0.25 

$$$$
L12.****
  PyMOL2.4          3D                             0

 24 24  0  0  0  0  0  0  0  0999 V2000
    0.1199   -0.7514    0.0887 C   0  0  0  1  0  0  0  0  0  0  0  0
    0.4980   -1.4233   -0.6533 H   0  0  0  1  0  0  0  0  0  0  0  0
   -0.2290   -1.6547    1.1322 O   0  0  0  1  0  0  0  0  0  0  0  0
    0.4879   -2.2783    1.2693 H   0  0  0  1  0  0  0  0  0  0  0  0
   -0.5768   -0.4000   -0.1813 C   0  0  0  1  0  0  0  0  0  0  0  0
   -0.8238   -0.7719   -1.1537 H   0  0  0  1  0  0  0  0  0  0  0  0
   -1.5995   -0.9959    0.6189 O   0  0  0  1  0  0  0  0  0  0  0  0
   -1.9713   -1.7494    0.1547 H   0  0  0  1  0  0  0  0  0  0  0  0
   -0.6596    0.4196   -0.1612 C   0  0  0  1  0  0  0  0  0  0  0  0
   -0.9544    0.7733   -1.1270 H   0  0  0  1  0  0  0  0  0  0  0  0
    0.6507    0.5383    0.3990 C   0  0  0  1  0  0  0  0  0  0  0  0
    0.9340    0.9305    1.3534 H   0  0  0  1  0  0  0  0  0  0  0  0
    1.6960    0.9811   -0.4257 O   0  0  0  1  0  0  0  0  0  0  0  0
    1.5459    1.8975   -0.6692 H   0  0  0  1  0  0  0  0  0  0  0  0
    1.8735   -0.4426   -0.4585 O   0  0  0  1  0  0  0  0  0  0  0  0
    2.3488   -1.2366   -0.2033 H   0  0  0  1  0  0  0  0  0  0  0  0
   -0.0460    0.8897    0.1290 O   0  0  0  1  0  0  0  0  0  0  0  0
    0.7336   -0.2813    0.3789 C   0  0  0  1  0  0  0  0  0  0  0  0
    1.0915   -0.6540    1.3158 H   0  0  0  1  0  0  0  0  0  0  0  0
   -1.8525    0.8241    0.6563 C   0  0  0  1  0  0  0  0  0  0  0  0
   -2.7057    0.2775    0.3125 H   0  0  0  1  0  0  0  0  0  0  0  0
   -2.0216    1.8721    0.5216 H   0  0  0  1  0  0  0  0  0  0  0  0
   -1.6731    0.5650    2.0454 O   0  0  0  1  0  0  0  0  0  0  0  0
   -0.7383    0.6034    2.2604 H   0  0  0  1  0  0  0  0  0  0  0  0
  1  2  1  0  0  0  0
  1  3  1  0  0  0  0
  1  5  1  0  0  0  0
  1 18  1  0  0  0  0
  3  4  1  0  0  0  0
  5  6  1  0  0  0  0
  5  7  1  0  0  0  0
  5  9  1  0  0  0  0
  7  8  1  0  0  0  0
  9 10  1  0  0  0  0
  9 17  1  0  0  0  0
  9 20  1  0  0  0  0
 11 12  1  0  0  0  0
 11 13  1  0  0  0  0
 11 17  1  0  0  0  0
 11 18  1  0  0  0  0
 13 14  1  0  0  0  0
 15 16  1  0  0  0  0
 15 18  1  0  0  0  0
 18 19  1  0  0  0  0
 20 21  1  0  0  0  0
 20 22  1  0  0  0  0
 20 23  1  0  0  0  0
 23 24  1  0  0  0  0
M  END
> <ConfClashScore>
0.0747336 

> <ConfOneFourInteractionScore>
-0.951485 

> <ConfScore>
8.13736 

> <ConfScorePBest>
0.00716747 

> <ConfTolerance>
0.25 

$$$$
L12.****
  PyMOL2.4          3D                             0

 24 24  0  0  0  0  0  0  0  0999 V2000
    0.1945   -0.6745    0.4521 C   0  0  0  1  0  0  0  0  0  0  0  0
    0.3784   -1.2194    1.3544 H   0  0  0  1  0  0  0  0  0  0  0  0
    0.0510   -1.7104   -0.5139 O   0  0  0  1  0  0  0  0  0  0  0  0
    0.1918   -2.5620   -0.0938 H   0  0  0  1  0  0  0  0  0  0  0  0
   -0.5530   -0.3239    0.4464 C   0  0  0  1  0  0  0  0  0  0  0  0
   -1.0335   -0.4660    1.3918 H   0  0  0  1  0  0  0  0  0  0  0  0
   -1.4126   -1.0633   -0.4230 O   0  0  0  1  0  0  0  0  0  0  0  0
   -1.8624   -1.7481    0.0774 H   0  0  0  1  0  0  0  0  0  0  0  0
   -0.6402    0.4569    0.1979 C   0  0  0  1  0  0  0  0  0  0  0  0
   -1.1771    1.0111    0.9392 H   0  0  0  1  0  0  0  0  0  0  0  0
    0.7676    0.5384   -0.0397 C   0  0  0  1  0  0  0  0  0  0  0  0
    1.4869    1.1750    0.4317 H   0  0  0  1  0  0  0  0  0  0  0  0
    1.2288    0.5008   -1.3660 O   0  0  0  1  0  0  0  0  0  0  0  0
    0.8773    1.2523   -1.8489 H   0  0  0  1  0  0  0  0  0  0  0  0
    1.6883   -0.1284    1.3572 O   0  0  0  1  0  0  0  0  0  0  0  0
    2.3125   -0.8576    1.3738 H   0  0  0  1  0  0  0  0  0  0  0  0
    0.0200    0.8890   -0.0454 O   0  0  0  1  0  0  0  0  0  0  0  0
    0.8547   -0.2424    0.2088 C   0  0  0  1  0  0  0  0  0  0  0  0
    1.4680   -0.8049   -0.4639 H   0  0  0  1  0  0  0  0  0  0  0  0
   -1.5740    0.5923   -0.9732 C   0  0  0  1  0  0  0  0  0  0  0  0
   -1.7167    1.6324   -1.1800 H   0  0  0  1  0  0  0  0  0  0  0  0
   -2.5127    0.1470   -0.7171 H   0  0  0  1  0  0  0  0  0  0  0  0
   -1.0730   -0.0408   -2.1431 O   0  0  0  1  0  0  0  0  0  0  0  0
   -1.8065   -0.3576   -2.6752 H   0  0  0  1  0  0  0  0  0  0  0  0
  1  2  1  0  0  0  0
  1  3  1  0  0  0  0
  1  5  1  0  0  0  0
  1 18  1  0  0  0  0
  3  4  1  0  0  0  0
  5  6  1  0  0  0  0
  5  7  1  0  0  0  0
  5  9  1  0  0  0  0
  7  8  1  0  0  0  0
  9 10  1  0  0  0  0
  9 17  1  0  0  0  0
  9 20  1  0  0  0  0
 11 12  1  0  0  0  0
 11 13  1  0  0  0  0
 11 17  1  0  0  0  0
 11 18  1  0  0  0  0
 13 14  1  0  0  0  0
 15 16  1  0  0  0  0
 15 18  1  0  0  0  0
 18 19  1  0  0  0  0
 20 21  1  0  0  0  0
 20 22  1  0  0  0  0
 20 23  1  0  0  0  0
 23 24  1  0  0  0  0
M  END
> <ConfClashScore>
0.0752603 

> <ConfOneFourInteractionScore>
-0.971319 

> <ConfScore>
8.17423 

> <ConfScorePBest>
0.00706447 

> <ConfTolerance>
0.25 

$$$$
L12.****
  PyMOL2.4          3D                             0

 24 24  0  0  0  0  0  0  0  0999 V2000
    0.1420   -0.7417    0.3438 C   0  0  0  1  0  0  0  0  0  0  0  0
   -0.0818   -1.0750    1.3356 H   0  0  0  1  0  0  0  0  0  0  0  0
    0.4793   -1.9689   -0.2941 O   0  0  0  1  0  0  0  0  0  0  0  0
    0.0323   -2.6938    0.1490 H   0  0  0  1  0  0  0  0  0  0  0  0
   -0.5462   -0.4675   -0.0210 C   0  0  0  1  0  0  0  0  0  0  0  0
   -0.9217   -1.2045   -0.6997 H   0  0  0  1  0  0  0  0  0  0  0  0
   -1.5289   -0.5086    1.0152 O   0  0  0  1  0  0  0  0  0  0  0  0
   -1.7879   -1.4190    1.1754 H   0  0  0  1  0  0  0  0  0  0  0  0
   -0.5565    0.2764   -0.3752 C   0  0  0  1  0  0  0  0  0  0  0  0
   -0.9462    0.2086   -1.3694 H   0  0  0  1  0  0  0  0  0  0  0  0
    0.8095    0.4737   -0.0008 C   0  0  0  1  0  0  0  0  0  0  0  0
    1.6693    0.6270   -0.6189 H   0  0  0  1  0  0  0  0  0  0  0  0
    1.0648    1.3221    1.0893 O   0  0  0  1  0  0  0  0  0  0  0  0
    1.2642    2.2047    0.7685 H   0  0  0  1  0  0  0  0  0  0  0  0
    1.7813   -1.0520   -0.3473 O   0  0  0  1  0  0  0  0  0  0  0  0
    1.7785   -0.8068   -1.2755 H   0  0  0  1  0  0  0  0  0  0  0  0
    0.1213    0.7479   -0.3655 O   0  0  0  1  0  0  0  0  0  0  0  0
    0.8198   -0.2702    0.3535 C   0  0  0  1  0  0  0  0  0  0  0  0
    1.2425   -0.2240    1.3354 H   0  0  0  1  0  0  0  0  0  0  0  0
   -1.5685    1.1864    0.2648 C   0  0  0  1  0  0  0  0  0  0  0  0
   -2.4831    0.6461    0.3936 H   0  0  0  1  0  0  0  0  0  0  0  0
   -1.7357    2.0226   -0.3815 H   0  0  0  1  0  0  0  0  0  0  0  0
   -1.1409    1.6678    1.5321 O   0  0  0  1  0  0  0  0  0  0  0  0
   -0.5387    2.4052    1.4082 H   0  0  0  1  0  0  0  0  0  0  0  0
  1  2  1  0  0  0  0
  1  3  1  0  0  0  0
  1  5  1  0  0  0  0
  1 18  1  0  0  0  0
  3  4  1  0  0  0  0
  5  6  1  0  0  0  0
  5  7  1  0  0  0  0
  5  9  1  0  0  0  0
  7  8  1  0  0  0  0
  9 10  1  0  0  0  0
  9 17  1  0  0  0  0
  9 20  1  0  0  0  0
 11 12  1  0  0  0  0
 11 13  1  0  0  0  0
 11 17  1  0  0  0  0
 11 18  1  0  0  0  0
 13 14  1  0  0  0  0
 15 16  1  0  0  0  0
 15 18  1  0  0  0  0
 18 19  1  0  0  0  0
 20 21  1  0  0  0  0
 20 22  1  0  0  0  0
 20 23  1  0  0  0  0
 23 24  1  0  0  0  0
M  END
> <ConfClashScore>
0.0756676 

> <ConfOneFourInteractionScore>
-0.978871 

> <ConfScore>
8.23007 

> <ConfScorePBest>
0.00696147 

> <ConfTolerance>
0.25 

$$$$
L12.****
  PyMOL2.4          3D                             0

 24 24  0  0  0  0  0  0  0  0999 V2000
    0.2198   -0.6239    0.4233 C   0  0  0  1  0  0  0  0  0  0  0  0
    0.4220   -0.9105    1.4341 H   0  0  0  1  0  0  0  0  0  0  0  0
    0.0569   -1.8887   -0.2095 O   0  0  0  1  0  0  0  0  0  0  0  0
   -0.0059   -2.5754    0.4584 H   0  0  0  1  0  0  0  0  0  0  0  0
   -0.5334   -0.2913    0.3615 C   0  0  0  1  0  0  0  0  0  0  0  0
   -0.9922   -0.2520    1.3273 H   0  0  0  1  0  0  0  0  0  0  0  0
   -1.3703   -1.2367   -0.3072 O   0  0  0  1  0  0  0  0  0  0  0  0
   -1.8625   -1.7445    0.3420 H   0  0  0  1  0  0  0  0  0  0  0  0
   -0.6355    0.4288   -0.0259 C   0  0  0  1  0  0  0  0  0  0  0  0
   -1.1336    1.1031    0.6390 H   0  0  0  1  0  0  0  0  0  0  0  0
    0.7686    0.4854   -0.2906 C   0  0  0  1  0  0  0  0  0  0  0  0
    1.2806    0.5006   -1.2301 H   0  0  0  1  0  0  0  0  0  0  0  0
    1.4799    1.4121    0.4554 O   0  0  0  1  0  0  0  0  0  0  0  0
    0.8776    1.8932    1.0276 H   0  0  0  1  0  0  0  0  0  0  0  0
    1.4650   -1.1405   -0.8268 O   0  0  0  1  0  0  0  0  0  0  0  0
    2.3800   -1.2946   -0.5808 H   0  0  0  1  0  0  0  0  0  0  0  0
    0.0154    0.8180   -0.3524 O   0  0  0  1  0  0  0  0  0  0  0  0
    0.8707   -0.2346    0.0967 C   0  0  0  1  0  0  0  0  0  0  0  0
    1.6444   -0.1452    0.8304 H   0  0  0  1  0  0  0  0  0  0  0  0
   -1.6806    0.3115   -1.1093 C   0  0  0  1  0  0  0  0  0  0  0  0
   -1.9093    1.2800   -1.5025 H   0  0  0  1  0  0  0  0  0  0  0  0
   -2.5698   -0.1320   -0.7125 H   0  0  0  1  0  0  0  0  0  0  0  0
   -1.1413   -0.5153   -2.1361 O   0  0  0  1  0  0  0  0  0  0  0  0
   -1.1136   -0.0249   -2.9610 H   0  0  0  1  0  0  0  0  0  0  0  0
  1  2  1  0  0  0  0
  1  3  1  0  0  0  0
  1  5  1  0  0  0  0
  1 18  1  0  0  0  0
  3  4  1  0  0  0  0
  5  6  1  0  0  0  0
  5  7  1  0  0  0  0
  5  9  1  0  0  0  0
  7  8  1  0  0  0  0
  9 10  1  0  0  0  0
  9 17  1  0  0  0  0
  9 20  1  0  0  0  0
 11 12  1  0  0  0  0
 11 13  1  0  0  0  0
 11 17  1  0  0  0  0
 11 18  1  0  0  0  0
 13 14  1  0  0  0  0
 15 16  1  0  0  0  0
 15 18  1  0  0  0  0
 18 19  1  0  0  0  0
 20 21  1  0  0  0  0
 20 22  1  0  0  0  0
 20 23  1  0  0  0  0
 23 24  1  0  0  0  0
M  END
> <ConfClashScore>
0.0760498 

> <ConfOneFourInteractionScore>
-0.978871 

> <ConfScore>
8.23964 

> <ConfScorePBest>
0.00685847 

> <ConfTolerance>
0.564174 

$$$$
L12.****
  PyMOL2.4          3D                             0

 24 24  0  0  0  0  0  0  0  0999 V2000
    0.1102   -0.7196   -0.1630 C   0  0  0  1  0  0  0  0  0  0  0  0
    0.0981   -1.1576   -1.1391 H   0  0  0  1  0  0  0  0  0  0  0  0
    0.1546   -1.8689    0.6760 O   0  0  0  1  0  0  0  0  0  0  0  0
    0.4568   -2.6252    0.1678 H   0  0  0  1  0  0  0  0  0  0  0  0
   -0.6185   -0.3746    0.0151 C   0  0  0  1  0  0  0  0  0  0  0  0
   -1.3014   -0.4882   -0.8007 H   0  0  0  1  0  0  0  0  0  0  0  0
   -1.2077   -1.2149    1.0092 O   0  0  0  1  0  0  0  0  0  0  0  0
   -2.0193   -1.5962    0.6665 H   0  0  0  1  0  0  0  0  0  0  0  0
   -0.6490    0.3911    0.3180 C   0  0  0  1  0  0  0  0  0  0  0  0
   -1.2508    0.4104    1.2025 H   0  0  0  1  0  0  0  0  0  0  0  0
    0.7779    0.4687    0.2654 C   0  0  0  1  0  0  0  0  0  0  0  0
    1.4687    0.5910    1.0734 H   0  0  0  1  0  0  0  0  0  0  0  0
    1.3725    1.2341   -0.7514 O   0  0  0  1  0  0  0  0  0  0  0  0
    1.0390    2.1335   -0.7122 H   0  0  0  1  0  0  0  0  0  0  0  0
    1.5226   -1.0948    0.9007 O   0  0  0  1  0  0  0  0  0  0  0  0
    2.4641   -0.9309    0.8095 H   0  0  0  1  0  0  0  0  0  0  0  0
    0.0492    0.8137    0.4435 O   0  0  0  1  0  0  0  0  0  0  0  0
    0.8084   -0.2970   -0.0375 C   0  0  0  1  0  0  0  0  0  0  0  0
    1.4435   -0.3439   -0.8974 H   0  0  0  1  0  0  0  0  0  0  0  0
   -1.4520    1.2843   -0.5833 C   0  0  0  1  0  0  0  0  0  0  0  0
   -0.8211    2.0550   -0.9741 H   0  0  0  1  0  0  0  0  0  0  0  0
   -2.2517    1.7256   -0.0259 H   0  0  0  1  0  0  0  0  0  0  0  0
   -1.9885    0.5230   -1.6572 O   0  0  0  1  0  0  0  0  0  0  0  0
   -1.7722    0.9477   -2.4905 H   0  0  0  1  0  0  0  0  0  0  0  0
  1  2  1  0  0  0  0
  1  3  1  0  0  0  0
  1  5  1  0  0  0  0
  1 18  1  0  0  0  0
  3  4  1  0  0  0  0
  5  6  1  0  0  0  0
  5  7  1  0  0  0  0
  5  9  1  0  0  0  0
  7  8  1  0  0  0  0
  9 10  1  0  0  0  0
  9 17  1  0  0  0  0
  9 20  1  0  0  0  0
 11 12  1  0  0  0  0
 11 13  1  0  0  0  0
 11 17  1  0  0  0  0
 11 18  1  0  0  0  0
 13 14  1  0  0  0  0
 15 16  1  0  0  0  0
 15 18  1  0  0  0  0
 18 19  1  0  0  0  0
 20 21  1  0  0  0  0
 20 22  1  0  0  0  0
 20 23  1  0  0  0  0
 23 24  1  0  0  0  0
M  END
> <ConfClashScore>
0.0721923 

> <ConfOneFourInteractionScore>
-0.95967 

> <ConfScore>
8.24465 

> <ConfScorePBest>
0.00675547 

> <ConfTolerance>
0.670915 

$$$$
L12.****
  PyMOL2.4          3D                             0

 24 24  0  0  0  0  0  0  0  0999 V2000
    0.2318   -0.6518    0.3076 C   0  0  0  1  0  0  0  0  0  0  0  0
    0.6571   -0.9782    1.2336 H   0  0  0  1  0  0  0  0  0  0  0  0
   -0.0883   -1.8842   -0.3291 O   0  0  0  1  0  0  0  0  0  0  0  0
   -0.2228   -2.5632    0.3361 H   0  0  0  1  0  0  0  0  0  0  0  0
   -0.4896   -0.2677    0.4249 C   0  0  0  1  0  0  0  0  0  0  0  0
   -0.7561   -0.2362    1.4607 H   0  0  0  1  0  0  0  0  0  0  0  0
   -1.4180   -1.2188   -0.0995 O   0  0  0  1  0  0  0  0  0  0  0  0
   -1.8371   -1.6901    0.6242 H   0  0  0  1  0  0  0  0  0  0  0  0
   -0.6400    0.4504    0.0498 C   0  0  0  1  0  0  0  0  0  0  0  0
   -0.9068    1.1706    0.7948 H   0  0  0  1  0  0  0  0  0  0  0  0
    0.6522    0.4020   -0.5607 C   0  0  0  1  0  0  0  0  0  0  0  0
    0.9285    0.3788   -1.5942 H   0  0  0  1  0  0  0  0  0  0  0  0
    1.5801    1.2808   -0.0136 O   0  0  0  1  0  0  0  0  0  0  0  0
    1.2343    1.6428    0.8055 H   0  0  0  1  0  0  0  0  0  0  0  0
    1.9818   -0.1326    0.5838 O   0  0  0  1  0  0  0  0  0  0  0  0
    2.3884   -0.9852    0.7553 H   0  0  0  1  0  0  0  0  0  0  0  0
   -0.0693    0.7861   -0.4435 O   0  0  0  1  0  0  0  0  0  0  0  0
    0.8026   -0.3161   -0.1856 C   0  0  0  1  0  0  0  0  0  0  0  0
    1.1302   -1.0385   -0.9037 H   0  0  0  1  0  0  0  0  0  0  0  0
   -1.8919    0.4659   -0.7835 C   0  0  0  1  0  0  0  0  0  0  0  0
   -2.0850    1.4714   -1.0942 H   0  0  0  1  0  0  0  0  0  0  0  0
   -2.7066    0.1142   -0.1856 H   0  0  0  1  0  0  0  0  0  0  0  0
   -1.7855   -0.3560   -1.9384 O   0  0  0  1  0  0  0  0  0  0  0  0
   -0.8971   -0.2920   -2.2965 H   0  0  0  1  0  0  0  0  0  0  0  0
  1  2  1  0  0  0  0
  1  3  1  0  0  0  0
  1  5  1  0  0  0  0
  1 18  1  0  0  0  0
  3  4  1  0  0  0  0
  5  6  1  0  0  0  0
  5  7  1  0  0  0  0
  5  9  1  0  0  0  0
  7  8  1  0  0  0  0
  9 10  1  0  0  0  0
  9 17  1  0  0  0  0
  9 20  1  0  0  0  0
 11 12  1  0  0  0  0
 11 13  1  0  0  0  0
 11 17  1  0  0  0  0
 11 18  1  0  0  0  0
 13 14  1  0  0  0  0
 15 16  1  0  0  0  0
 15 18  1  0  0  0  0
 18 19  1  0  0  0  0
 20 21  1  0  0  0  0
 20 22  1  0  0  0  0
 20 23  1  0  0  0  0
 23 24  1  0  0  0  0
M  END
> <ConfClashScore>
0.0762593 

> <ConfOneFourInteractionScore>
-0.971319 

> <ConfScore>
8.25797 

> <ConfScorePBest>
0.00665247 

> <ConfTolerance>
0.25 

$$$$
L12.****
  PyMOL2.4          3D                             0

 24 24  0  0  0  0  0  0  0  0999 V2000
    0.1669   -0.7722    0.1201 C   0  0  0  1  0  0  0  0  0  0  0  0
    0.2854   -1.2145    1.0872 H   0  0  0  1  0  0  0  0  0  0  0  0
    0.2203   -1.9057   -0.7395 O   0  0  0  1  0  0  0  0  0  0  0  0
   -0.0440   -2.6898   -0.2527 H   0  0  0  1  0  0  0  0  0  0  0  0
   -0.5892   -0.4548    0.0234 C   0  0  0  1  0  0  0  0  0  0  0  0
   -1.2544   -1.1541   -0.4386 H   0  0  0  1  0  0  0  0  0  0  0  0
   -1.0921   -0.3933    1.3593 O   0  0  0  1  0  0  0  0  0  0  0  0
   -1.5265   -1.2213    1.5767 H   0  0  0  1  0  0  0  0  0  0  0  0
   -0.6815    0.3032   -0.2862 C   0  0  0  1  0  0  0  0  0  0  0  0
   -1.4186    0.3161   -1.0617 H   0  0  0  1  0  0  0  0  0  0  0  0
    0.7382    0.4283   -0.4031 C   0  0  0  1  0  0  0  0  0  0  0  0
    1.3115    0.5418   -1.2994 H   0  0  0  1  0  0  0  0  0  0  0  0
    1.4395    1.2487    0.4960 O   0  0  0  1  0  0  0  0  0  0  0  0
    1.0303    2.1167    0.5236 H   0  0  0  1  0  0  0  0  0  0  0  0
    1.6130   -0.2112    1.0898 O   0  0  0  1  0  0  0  0  0  0  0  0
    2.1047   -1.0234    1.2316 H   0  0  0  1  0  0  0  0  0  0  0  0
   -0.0179    0.7457   -0.4999 O   0  0  0  1  0  0  0  0  0  0  0  0
    0.8305   -0.3298   -0.0935 C   0  0  0  1  0  0  0  0  0  0  0  0
    1.4755   -0.9098   -0.7199 H   0  0  0  1  0  0  0  0  0  0  0  0
   -1.3247    1.1943    0.7498 C   0  0  0  1  0  0  0  0  0  0  0  0
   -0.5932    1.4802    1.4765 H   0  0  0  1  0  0  0  0  0  0  0  0
   -2.1187    0.6633    1.2320 H   0  0  0  1  0  0  0  0  0  0  0  0
   -1.8473    2.3579    0.1224 O   0  0  0  1  0  0  0  0  0  0  0  0
   -1.1240    2.9281   -0.1485 H   0  0  0  1  0  0  0  0  0  0  0  0
  1  2  1  0  0  0  0
  1  3  1  0  0  0  0
  1  5  1  0  0  0  0
  1 18  1  0  0  0  0
  3  4  1  0  0  0  0
  5  6  1  0  0  0  0
  5  7  1  0  0  0  0
  5  9  1  0  0  0  0
  7  8  1  0  0  0  0
  9 10  1  0  0  0  0
  9 17  1  0  0  0  0
  9 20  1  0  0  0  0
 11 12  1  0  0  0  0
 11 13  1  0  0  0  0
 11 17  1  0  0  0  0
 11 18  1  0  0  0  0
 13 14  1  0  0  0  0
 15 16  1  0  0  0  0
 15 18  1  0  0  0  0
 18 19  1  0  0  0  0
 20 21  1  0  0  0  0
 20 22  1  0  0  0  0
 20 23  1  0  0  0  0
 23 24  1  0  0  0  0
M  END
> <ConfClashScore>
0.0763692 

> <ConfOneFourInteractionScore>
-0.922804 

> <ConfScore>
8.30697 

> <ConfScorePBest>
0.00654947 

> <ConfTolerance>
0.25 

$$$$
L12.****
  PyMOL2.4          3D                             0

 24 24  0  0  0  0  0  0  0  0999 V2000
    0.1532   -0.7688    0.0779 C   0  0  0  1  0  0  0  0  0  0  0  0
    0.5283   -1.5234   -0.5815 H   0  0  0  1  0  0  0  0  0  0  0  0
   -0.1429   -1.5193    1.2509 O   0  0  0  1  0  0  0  0  0  0  0  0
   -0.2047   -2.4511    1.0281 H   0  0  0  1  0  0  0  0  0  0  0  0
   -0.5612   -0.4607   -0.1986 C   0  0  0  1  0  0  0  0  0  0  0  0
   -0.8533   -0.9285   -1.1155 H   0  0  0  1  0  0  0  0  0  0  0  0
   -1.5272   -0.9765    0.7192 O   0  0  0  1  0  0  0  0  0  0  0  0
   -1.9775   -1.7260    0.3228 H   0  0  0  1  0  0  0  0  0  0  0  0
   -0.6726    0.3551   -0.2325 C   0  0  0  1  0  0  0  0  0  0  0  0
   -1.0678    0.6510   -1.1818 H   0  0  0  1  0  0  0  0  0  0  0  0
    0.6447    0.5564    0.2864 C   0  0  0  1  0  0  0  0  0  0  0  0
    0.9348    1.0232    1.2045 H   0  0  0  1  0  0  0  0  0  0  0  0
    1.6566    0.9766   -0.5926 O   0  0  0  1  0  0  0  0  0  0  0  0
    1.8212    1.9141   -0.4671 H   0  0  0  1  0  0  0  0  0  0  0  0
    1.9197   -0.4913   -0.4662 O   0  0  0  1  0  0  0  0  0  0  0  0
    2.6234   -0.8267    0.0940 H   0  0  0  1  0  0  0  0  0  0  0  0
   -0.0698    0.8646    0.0099 O   0  0  0  1  0  0  0  0  0  0  0  0
    0.7560   -0.2593    0.3204 C   0  0  0  1  0  0  0  0  0  0  0  0
    1.0999   -0.5400    1.2939 H   0  0  0  1  0  0  0  0  0  0  0  0
   -1.7937    0.7459    0.6906 C   0  0  0  1  0  0  0  0  0  0  0  0
   -1.4850    0.6321    1.7088 H   0  0  0  1  0  0  0  0  0  0  0  0
   -2.6498    0.1311    0.5062 H   0  0  0  1  0  0  0  0  0  0  0  0
   -2.1081    2.1071    0.4281 O   0  0  0  1  0  0  0  0  0  0  0  0
   -1.3393    2.6536    0.6062 H   0  0  0  1  0  0  0  0  0  0  0  0
  1  2  1  0  0  0  0
  1  3  1  0  0  0  0
  1  5  1  0  0  0  0
  1 18  1  0  0  0  0
  3  4  1  0  0  0  0
  5  6  1  0  0  0  0
  5  7  1  0  0  0  0
  5  9  1  0  0  0  0
  7  8  1  0  0  0  0
  9 10  1  0  0  0  0
  9 17  1  0  0  0  0
  9 20  1  0  0  0  0
 11 12  1  0  0  0  0
 11 13  1  0  0  0  0
 11 17  1  0  0  0  0
 11 18  1  0  0  0  0
 13 14  1  0  0  0  0
 15 16  1  0  0  0  0
 15 18  1  0  0  0  0
 18 19  1  0  0  0  0
 20 21  1  0  0  0  0
 20 22  1  0  0  0  0
 20 23  1  0  0  0  0
 23 24  1  0  0  0  0
M  END
> <ConfClashScore>
0.076754 

> <ConfOneFourInteractionScore>
-0.95019 

> <ConfScore>
8.31261 

> <ConfScorePBest>
0.00644647 

> <ConfTolerance>
0.25 

$$$$
L12.****
  PyMOL2.4          3D                             0

 24 24  0  0  0  0  0  0  0  0999 V2000
    0.0284   -0.6035    0.5732 C   0  0  0  1  0  0  0  0  0  0  0  0
    0.0025   -1.0184    1.5592 H   0  0  0  1  0  0  0  0  0  0  0  0
    0.3080   -1.7503   -0.2226 O   0  0  0  1  0  0  0  0  0  0  0  0
    0.9067   -2.3316    0.2521 H   0  0  0  1  0  0  0  0  0  0  0  0
   -0.7164   -0.3255    0.3500 C   0  0  0  1  0  0  0  0  0  0  0  0
   -1.4329   -0.4838    1.1287 H   0  0  0  1  0  0  0  0  0  0  0  0
   -1.1452   -1.2617   -0.6405 O   0  0  0  1  0  0  0  0  0  0  0  0
   -1.8381   -1.8179   -0.2771 H   0  0  0  1  0  0  0  0  0  0  0  0
   -0.7948    0.4277    0.0253 C   0  0  0  1  0  0  0  0  0  0  0  0
   -1.5373    0.9717    0.5709 H   0  0  0  1  0  0  0  0  0  0  0  0
    0.6161    0.6268    0.1461 C   0  0  0  1  0  0  0  0  0  0  0  0
    1.1384    1.3546    0.7312 H   0  0  0  1  0  0  0  0  0  0  0  0
    1.4069    0.5547   -1.0126 O   0  0  0  1  0  0  0  0  0  0  0  0
    2.0605    1.2577   -0.9987 H   0  0  0  1  0  0  0  0  0  0  0  0
    1.5966   -0.8587   -0.3517 O   0  0  0  1  0  0  0  0  0  0  0  0
    2.2543   -1.2899    0.1988 H   0  0  0  1  0  0  0  0  0  0  0  0
   -0.1287    0.9048   -0.0771 O   0  0  0  1  0  0  0  0  0  0  0  0
    0.6945   -0.1265    0.4709 C   0  0  0  1  0  0  0  0  0  0  0  0
    1.2441   -0.0708    1.3873 H   0  0  0  1  0  0  0  0  0  0  0  0
   -1.3966    0.4557   -1.3502 C   0  0  0  1  0  0  0  0  0  0  0  0
   -1.5773    1.4700   -1.6388 H   0  0  0  1  0  0  0  0  0  0  0  0
   -2.3204   -0.0843   -1.3453 H   0  0  0  1  0  0  0  0  0  0  0  0
   -0.5022   -0.1468   -2.2763 O   0  0  0  1  0  0  0  0  0  0  0  0
   -0.9479   -0.8650   -2.7315 H   0  0  0  1  0  0  0  0  0  0  0  0
  1  2  1  0  0  0  0
  1  3  1  0  0  0  0
  1  5  1  0  0  0  0
  1 18  1  0  0  0  0
  3  4  1  0  0  0  0
  5  6  1  0  0  0  0
  5  7  1  0  0  0  0
  5  9  1  0  0  0  0
  7  8  1  0  0  0  0
  9 10  1  0  0  0  0
  9 17  1  0  0  0  0
  9 20  1  0  0  0  0
 11 12  1  0  0  0  0
 11 13  1  0  0  0  0
 11 17  1  0  0  0  0
 11 18  1  0  0  0  0
 13 14  1  0  0  0  0
 15 16  1  0  0  0  0
 15 18  1  0  0  0  0
 18 19  1  0  0  0  0
 20 21  1  0  0  0  0
 20 22  1  0  0  0  0
 20 23  1  0  0  0  0
 23 24  1  0  0  0  0
M  END
> <ConfClashScore>
0.0778525 

> <ConfOneFourInteractionScore>
-0.971319 

> <ConfScore>
8.43211 

> <ConfScorePBest>
0.00634346 

> <ConfTolerance>
0.594999 

$$$$
L12.****
  PyMOL2.4          3D                             0

 24 24  0  0  0  0  0  0  0  0999 V2000
    0.1717   -0.6634    0.4079 C   0  0  0  1  0  0  0  0  0  0  0  0
    0.0223   -1.0312    1.4015 H   0  0  0  1  0  0  0  0  0  0  0  0
    0.7503   -1.7861   -0.2488 O   0  0  0  1  0  0  0  0  0  0  0  0
    0.6548   -1.6860   -1.1988 H   0  0  0  1  0  0  0  0  0  0  0  0
   -0.5445   -0.4795    0.0403 C   0  0  0  1  0  0  0  0  0  0  0  0
   -0.8295   -1.2860   -0.6025 H   0  0  0  1  0  0  0  0  0  0  0  0
   -1.5293   -0.5774    1.0543 O   0  0  0  1  0  0  0  0  0  0  0  0
   -1.9605   -1.4334    1.0006 H   0  0  0  1  0  0  0  0  0  0  0  0
   -0.6296    0.2341   -0.3627 C   0  0  0  1  0  0  0  0  0  0  0  0
   -1.0600    0.0813   -1.3303 H   0  0  0  1  0  0  0  0  0  0  0  0
    0.7174    0.5818   -0.0316 C   0  0  0  1  0  0  0  0  0  0  0  0
    1.0674    1.4020    0.5598 H   0  0  0  1  0  0  0  0  0  0  0  0
    1.6978    0.4978   -1.0316 O   0  0  0  1  0  0  0  0  0  0  0  0
    1.5096   -0.2505   -1.6027 H   0  0  0  1  0  0  0  0  0  0  0  0
    0.9578    0.3021    1.7301 O   0  0  0  1  0  0  0  0  0  0  0  0
    1.4203   -0.3735    2.2314 H   0  0  0  1  0  0  0  0  0  0  0  0
    0.0013    0.7656   -0.3992 O   0  0  0  1  0  0  0  0  0  0  0  0
    0.8025   -0.1318    0.3715 C   0  0  0  1  0  0  0  0  0  0  0  0
    1.7362   -0.6130    0.1677 H   0  0  0  1  0  0  0  0  0  0  0  0
   -1.6891    1.0623    0.3060 C   0  0  0  1  0  0  0  0  0  0  0  0
   -2.4895    0.4271    0.6233 H   0  0  0  1  0  0  0  0  0  0  0  0
   -2.0621    1.7885   -0.3856 H   0  0  0  1  0  0  0  0  0  0  0  0
   -1.1364    1.7256    1.4352 O   0  0  0  1  0  0  0  0  0  0  0  0
   -1.3733    2.6555    1.4084 H   0  0  0  1  0  0  0  0  0  0  0  0
  1  2  1  0  0  0  0
  1  3  1  0  0  0  0
  1  5  1  0  0  0  0
  1 18  1  0  0  0  0
  3  4  1  0  0  0  0
  5  6  1  0  0  0  0
  5  7  1  0  0  0  0
  5  9  1  0  0  0  0
  7  8  1  0  0  0  0
  9 10  1  0  0  0  0
  9 17  1  0  0  0  0
  9 20  1  0  0  0  0
 11 12  1  0  0  0  0
 11 13  1  0  0  0  0
 11 17  1  0  0  0  0
 11 18  1  0  0  0  0
 13 14  1  0  0  0  0
 15 16  1  0  0  0  0
 15 18  1  0  0  0  0
 18 19  1  0  0  0  0
 20 21  1  0  0  0  0
 20 22  1  0  0  0  0
 20 23  1  0  0  0  0
 23 24  1  0  0  0  0
M  END
> <ConfClashScore>
0.07739 

> <ConfOneFourInteractionScore>
-0.978871 

> <ConfScore>
8.46118 

> <ConfScorePBest>
0.00624046 

> <ConfTolerance>
0.25 

$$$$
L12.****
  PyMOL2.4          3D                             0

 24 24  0  0  0  0  0  0  0  0999 V2000
    0.1153   -0.7146    0.2774 C   0  0  0  1  0  0  0  0  0  0  0  0
    0.0306   -1.1330    1.2586 H   0  0  0  1  0  0  0  0  0  0  0  0
    0.3531   -1.8656   -0.5260 O   0  0  0  1  0  0  0  0  0  0  0  0
    0.6491   -2.5895    0.0307 H   0  0  0  1  0  0  0  0  0  0  0  0
   -0.6161   -0.4632   -0.0118 C   0  0  0  1  0  0  0  0  0  0  0  0
   -1.0762   -1.2230   -0.6083 H   0  0  0  1  0  0  0  0  0  0  0  0
   -1.4497   -0.4507    1.1485 O   0  0  0  1  0  0  0  0  0  0  0  0
   -1.9041   -1.2928    1.2257 H   0  0  0  1  0  0  0  0  0  0  0  0
   -0.6864    0.2769   -0.3672 C   0  0  0  1  0  0  0  0  0  0  0  0
   -1.1998    0.2021   -1.3030 H   0  0  0  1  0  0  0  0  0  0  0  0
    0.7059    0.5159   -0.1450 C   0  0  0  1  0  0  0  0  0  0  0  0
    1.5163    0.7413   -0.8063 H   0  0  0  1  0  0  0  0  0  0  0  0
    0.8982    1.4177    0.9197 O   0  0  0  1  0  0  0  0  0  0  0  0
    1.5250    2.0955    0.6563 H   0  0  0  1  0  0  0  0  0  0  0  0
    1.6780   -0.9849   -0.5865 O   0  0  0  1  0  0  0  0  0  0  0  0
    2.2889   -1.4575   -0.0164 H   0  0  0  1  0  0  0  0  0  0  0  0
   -0.0255    0.7673   -0.4342 O   0  0  0  1  0  0  0  0  0  0  0  0
    0.7762   -0.2242    0.2103 C   0  0  0  1  0  0  0  0  0  0  0  0
    1.3017   -0.1573    1.1400 H   0  0  0  1  0  0  0  0  0  0  0  0
   -1.6134    1.1546    0.4003 C   0  0  0  1  0  0  0  0  0  0  0  0
   -1.7245    2.0734   -0.1368 H   0  0  0  1  0  0  0  0  0  0  0  0
   -1.1732    1.3504    1.3557 H   0  0  0  1  0  0  0  0  0  0  0  0
   -2.8983    0.6098    0.6110 O   0  0  0  1  0  0  0  0  0  0  0  0
   -3.1298    0.0404   -0.1265 H   0  0  0  1  0  0  0  0  0  0  0  0
  1  2  1  0  0  0  0
  1  3  1  0  0  0  0
  1  5  1  0  0  0  0
  1 18  1  0  0  0  0
  3  4  1  0  0  0  0
  5  6  1  0  0  0  0
  5  7  1  0  0  0  0
  5  9  1  0  0  0  0
  7  8  1  0  0  0  0
  9 10  1  0  0  0  0
  9 17  1  0  0  0  0
  9 20  1  0  0  0  0
 11 12  1  0  0  0  0
 11 13  1  0  0  0  0
 11 17  1  0  0  0  0
 11 18  1  0  0  0  0
 13 14  1  0  0  0  0
 15 16  1  0  0  0  0
 15 18  1  0  0  0  0
 18 19  1  0  0  0  0
 20 21  1  0  0  0  0
 20 22  1  0  0  0  0
 20 23  1  0  0  0  0
 23 24  1  0  0  0  0
M  END
> <ConfClashScore>
0.0771457 

> <ConfOneFourInteractionScore>
-0.942638 

> <ConfScore>
8.52226 

> <ConfScorePBest>
0.00613746 

> <ConfTolerance>
0.582382 

$$$$
L12.****
  PyMOL2.4          3D                             0

 24 24  0  0  0  0  0  0  0  0999 V2000
    0.1614   -0.8271    0.0377 C   0  0  0  1  0  0  0  0  0  0  0  0
    0.0479   -1.7226   -0.5368 H   0  0  0  1  0  0  0  0  0  0  0  0
    0.6588   -1.3323    1.2722 O   0  0  0  1  0  0  0  0  0  0  0  0
   -0.0177   -1.8653    1.6963 H   0  0  0  1  0  0  0  0  0  0  0  0
   -0.5743   -0.4933    0.2083 C   0  0  0  1  0  0  0  0  0  0  0  0
   -0.9046   -0.7747    1.1864 H   0  0  0  1  0  0  0  0  0  0  0  0
   -1.4781   -1.2181   -0.6283 O   0  0  0  1  0  0  0  0  0  0  0  0
   -2.3064   -1.3546   -0.1627 H   0  0  0  1  0  0  0  0  0  0  0  0
   -0.7045    0.3089    0.0721 C   0  0  0  1  0  0  0  0  0  0  0  0
   -1.6209    0.4666   -0.4572 H   0  0  0  1  0  0  0  0  0  0  0  0
    0.6364    0.4454   -0.4055 C   0  0  0  1  0  0  0  0  0  0  0  0
    1.0225    0.7683   -1.3498 H   0  0  0  1  0  0  0  0  0  0  0  0
    1.4770    1.0718    0.5096 O   0  0  0  1  0  0  0  0  0  0  0  0
    1.6780    1.9596    0.2046 H   0  0  0  1  0  0  0  0  0  0  0  0
    1.8651   -0.3466    0.6361 O   0  0  0  1  0  0  0  0  0  0  0  0
    2.4558   -1.0752    0.4316 H   0  0  0  1  0  0  0  0  0  0  0  0
   -0.0993    0.7792   -0.2349 O   0  0  0  1  0  0  0  0  0  0  0  0
    0.7666   -0.3568   -0.2693 C   0  0  0  1  0  0  0  0  0  0  0  0
    1.1998   -0.8189   -1.1317 H   0  0  0  1  0  0  0  0  0  0  0  0
   -0.9965    1.0008    1.3843 C   0  0  0  1  0  0  0  0  0  0  0  0
   -0.2541    1.7537    1.5480 H   0  0  0  1  0  0  0  0  0  0  0  0
   -0.9513    0.2774    2.1714 H   0  0  0  1  0  0  0  0  0  0  0  0
   -2.2790    1.6136    1.4012 O   0  0  0  1  0  0  0  0  0  0  0  0
   -2.8181    1.2100    2.0854 H   0  0  0  1  0  0  0  0  0  0  0  0
  1  2  1  0  0  0  0
  1  3  1  0  0  0  0
  1  5  1  0  0  0  0
  1 18  1  0  0  0  0
  3  4  1  0  0  0  0
  5  6  1  0  0  0  0
  5  7  1  0  0  0  0
  5  9  1  0  0  0  0
  7  8  1  0  0  0  0
  9 10  1  0  0  0  0
  9 17  1  0  0  0  0
  9 20  1  0  0  0  0
 11 12  1  0  0  0  0
 11 13  1  0  0  0  0
 11 17  1  0  0  0  0
 11 18  1  0  0  0  0
 13 14  1  0  0  0  0
 15 16  1  0  0  0  0
 15 18  1  0  0  0  0
 18 19  1  0  0  0  0
 20 21  1  0  0  0  0
 20 22  1  0  0  0  0
 20 23  1  0  0  0  0
 23 24  1  0  0  0  0
M  END
> <ConfClashScore>
0.0749682 

> <ConfOneFourInteractionScore>
-0.922804 

> <ConfScore>
8.53422 

> <ConfScorePBest>
0.00603446 

> <ConfTolerance>
0.800112 

$$$$
L12.****
  PyMOL2.4          3D                             0

 24 24  0  0  0  0  0  0  0  0999 V2000
    0.0670   -0.8560    0.2377 C   0  0  0  1  0  0  0  0  0  0  0  0
    0.1096   -1.5525   -0.5734 H   0  0  0  1  0  0  0  0  0  0  0  0
    0.1426   -1.7250    1.3628 O   0  0  0  1  0  0  0  0  0  0  0  0
    0.2976   -1.2084    2.1569 H   0  0  0  1  0  0  0  0  0  0  0  0
   -0.6623   -0.4688    0.2418 C   0  0  0  1  0  0  0  0  0  0  0  0
   -1.3309   -0.9141    0.9486 H   0  0  0  1  0  0  0  0  0  0  0  0
   -1.3010   -0.7673   -1.0004 O   0  0  0  1  0  0  0  0  0  0  0  0
   -1.6595   -1.6574   -0.9706 H   0  0  0  1  0  0  0  0  0  0  0  0
   -0.6919    0.3537    0.2821 C   0  0  0  1  0  0  0  0  0  0  0  0
   -1.3040    0.6285    1.1156 H   0  0  0  1  0  0  0  0  0  0  0  0
    0.7368    0.4037    0.3143 C   0  0  0  1  0  0  0  0  0  0  0  0
    1.3727    0.7741    1.0910 H   0  0  0  1  0  0  0  0  0  0  0  0
    1.4201    0.8002   -0.8425 O   0  0  0  1  0  0  0  0  0  0  0  0
    1.5615    1.7495   -0.8216 H   0  0  0  1  0  0  0  0  0  0  0  0
    1.4054   -0.6536   -0.9763 O   0  0  0  1  0  0  0  0  0  0  0  0
    2.3362   -0.8382   -0.8308 H   0  0  0  1  0  0  0  0  0  0  0  0
    0.0076    0.7909    0.3184 O   0  0  0  1  0  0  0  0  0  0  0  0
    0.7665   -0.4188    0.2740 C   0  0  0  1  0  0  0  0  0  0  0  0
    1.4632   -0.8318    0.9733 H   0  0  0  1  0  0  0  0  0  0  0  0
   -1.4703    1.0062   -0.8378 C   0  0  0  1  0  0  0  0  0  0  0  0
   -1.6405    2.0320   -0.5853 H   0  0  0  1  0  0  0  0  0  0  0  0
   -2.4091    0.5035   -0.9418 H   0  0  0  1  0  0  0  0  0  0  0  0
   -0.7829    0.9505   -2.0808 O   0  0  0  1  0  0  0  0  0  0  0  0
   -0.1701    1.6870   -2.1415 H   0  0  0  1  0  0  0  0  0  0  0  0
  1  2  1  0  0  0  0
  1  3  1  0  0  0  0
  1  5  1  0  0  0  0
  1 18  1  0  0  0  0
  3  4  1  0  0  0  0
  5  6  1  0  0  0  0
  5  7  1  0  0  0  0
  5  9  1  0  0  0  0
  7  8  1  0  0  0  0
  9 10  1  0  0  0  0
  9 17  1  0  0  0  0
  9 20  1  0  0  0  0
 11 12  1  0  0  0  0
 11 13  1  0  0  0  0
 11 17  1  0  0  0  0
 11 18  1  0  0  0  0
 13 14  1  0  0  0  0
 15 16  1  0  0  0  0
 15 18  1  0  0  0  0
 18 19  1  0  0  0  0
 20 21  1  0  0  0  0
 20 22  1  0  0  0  0
 20 23  1  0  0  0  0
 23 24  1  0  0  0  0
M  END
> <ConfClashScore>
0.0802564 

> <ConfOneFourInteractionScore>
-0.978871 

> <ConfScore>
8.65895 

> <ConfScorePBest>
0.00593146 

> <ConfTolerance>
0.877422 

$$$$
L12.****
  PyMOL2.4          3D                             0

 24 24  0  0  0  0  0  0  0  0999 V2000
    0.2290   -0.5989    0.5007 C   0  0  0  1  0  0  0  0  0  0  0  0
    0.4322   -1.0896    1.4297 H   0  0  0  1  0  0  0  0  0  0  0  0
    0.2352   -1.6841   -0.4420 O   0  0  0  1  0  0  0  0  0  0  0  0
    0.4230   -2.5061    0.0169 H   0  0  0  1  0  0  0  0  0  0  0  0
   -0.5369   -0.2931    0.4617 C   0  0  0  1  0  0  0  0  0  0  0  0
   -1.0135   -0.3820    1.4155 H   0  0  0  1  0  0  0  0  0  0  0  0
   -1.2646   -1.2532   -0.3064 O   0  0  0  1  0  0  0  0  0  0  0  0
   -2.1371   -1.3743    0.0754 H   0  0  0  1  0  0  0  0  0  0  0  0
   -0.6647    0.4602    0.1530 C   0  0  0  1  0  0  0  0  0  0  0  0
   -1.2785    1.0379    0.8120 H   0  0  0  1  0  0  0  0  0  0  0  0
    0.7392    0.6036   -0.0783 C   0  0  0  1  0  0  0  0  0  0  0  0
    1.4154    1.3144    0.3486 H   0  0  0  1  0  0  0  0  0  0  0  0
    1.2188    0.4910   -1.3938 O   0  0  0  1  0  0  0  0  0  0  0  0
    0.5854    0.0030   -1.9251 H   0  0  0  1  0  0  0  0  0  0  0  0
    1.7141    0.0867    1.3499 O   0  0  0  1  0  0  0  0  0  0  0  0
    2.3774   -0.6054    1.4016 H   0  0  0  1  0  0  0  0  0  0  0  0
   -0.0268    0.9094   -0.1174 O   0  0  0  1  0  0  0  0  0  0  0  0
    0.8669   -0.1497    0.2304 C   0  0  0  1  0  0  0  0  0  0  0  0
    1.5000   -0.7269   -0.4107 H   0  0  0  1  0  0  0  0  0  0  0  0
   -1.5472    0.3720   -1.0588 C   0  0  0  1  0  0  0  0  0  0  0  0
   -1.3053   -0.5117   -1.6114 H   0  0  0  1  0  0  0  0  0  0  0  0
   -1.3917    1.2326   -1.6753 H   0  0  0  1  0  0  0  0  0  0  0  0
   -2.9095    0.3193   -0.6560 O   0  0  0  1  0  0  0  0  0  0  0  0
   -3.2677    1.2093   -0.6201 H   0  0  0  1  0  0  0  0  0  0  0  0
  1  2  1  0  0  0  0
  1  3  1  0  0  0  0
  1  5  1  0  0  0  0
  1 18  1  0  0  0  0
  3  4  1  0  0  0  0
  5  6  1  0  0  0  0
  5  7  1  0  0  0  0
  5  9  1  0  0  0  0
  7  8  1  0  0  0  0
  9 10  1  0  0  0  0
  9 17  1  0  0  0  0
  9 20  1  0  0  0  0
 11 12  1  0  0  0  0
 11 13  1  0  0  0  0
 11 17  1  0  0  0  0
 11 18  1  0  0  0  0
 13 14  1  0  0  0  0
 15 16  1  0  0  0  0
 15 18  1  0  0  0  0
 18 19  1  0  0  0  0
 20 21  1  0  0  0  0
 20 22  1  0  0  0  0
 20 23  1  0  0  0  0
 23 24  1  0  0  0  0
M  END
> <ConfClashScore>
0.0768024 

> <ConfOneFourInteractionScore>
-0.922804 

> <ConfScore>
8.6785 

> <ConfScorePBest>
0.00582846 

> <ConfTolerance>
0.599699 

$$$$
L12.****
  PyMOL2.4          3D                             0

 24 24  0  0  0  0  0  0  0  0999 V2000
    0.0146   -0.7819    0.2568 C   0  0  0  1  0  0  0  0  0  0  0  0
   -0.2096   -1.3672    1.1240 H   0  0  0  1  0  0  0  0  0  0  0  0
    0.6597   -1.7480   -0.5662 O   0  0  0  1  0  0  0  0  0  0  0  0
    1.0886   -2.4051   -0.0131 H   0  0  0  1  0  0  0  0  0  0  0  0
   -0.6895   -0.5555   -0.1103 C   0  0  0  1  0  0  0  0  0  0  0  0
   -0.8970   -1.1758   -0.9571 H   0  0  0  1  0  0  0  0  0  0  0  0
   -1.7829   -0.8627    0.7565 O   0  0  0  1  0  0  0  0  0  0  0  0
   -1.7391   -0.3058    1.5373 H   0  0  0  1  0  0  0  0  0  0  0  0
   -0.8269    0.2382   -0.2842 C   0  0  0  1  0  0  0  0  0  0  0  0
   -1.7961    0.5386    0.0553 H   0  0  0  1  0  0  0  0  0  0  0  0
    0.4436    0.5808    0.2755 C   0  0  0  1  0  0  0  0  0  0  0  0
    0.6621    1.2065    1.1155 H   0  0  0  1  0  0  0  0  0  0  0  0
    1.5203    0.8549   -0.5903 O   0  0  0  1  0  0  0  0  0  0  0  0
    2.3259    0.9557   -0.0780 H   0  0  0  1  0  0  0  0  0  0  0  0
    1.7059   -0.5928   -0.3360 O   0  0  0  1  0  0  0  0  0  0  0  0
    2.4717   -0.7017    0.2326 H   0  0  0  1  0  0  0  0  0  0  0  0
   -0.2605    0.8072   -0.0915 O   0  0  0  1  0  0  0  0  0  0  0  0
    0.5810   -0.2128    0.4495 C   0  0  0  1  0  0  0  0  0  0  0  0
    0.9451   -0.3412    1.4474 H   0  0  0  1  0  0  0  0  0  0  0  0
   -0.9500    0.4836   -1.7606 C   0  0  0  1  0  0  0  0  0  0  0  0
   -0.7666   -0.4284   -2.2892 H   0  0  0  1  0  0  0  0  0  0  0  0
   -0.2335    1.2200   -2.0596 H   0  0  0  1  0  0  0  0  0  0  0  0
   -2.2591    0.9489   -2.0609 O   0  0  0  1  0  0  0  0  0  0  0  0
   -2.3366    1.8722   -1.8097 H   0  0  0  1  0  0  0  0  0  0  0  0
  1  2  1  0  0  0  0
  1  3  1  0  0  0  0
  1  5  1  0  0  0  0
  1 18  1  0  0  0  0
  3  4  1  0  0  0  0
  5  6  1  0  0  0  0
  5  7  1  0  0  0  0
  5  9  1  0  0  0  0
  7  8  1  0  0  0  0
  9 10  1  0  0  0  0
  9 17  1  0  0  0  0
  9 20  1  0  0  0  0
 11 12  1  0  0  0  0
 11 13  1  0  0  0  0
 11 17  1  0  0  0  0
 11 18  1  0  0  0  0
 13 14  1  0  0  0  0
 15 16  1  0  0  0  0
 15 18  1  0  0  0  0
 18 19  1  0  0  0  0
 20 21  1  0  0  0  0
 20 22  1  0  0  0  0
 20 23  1  0  0  0  0
 23 24  1  0  0  0  0
M  END
> <ConfClashScore>
0.0779642 

> <ConfOneFourInteractionScore>
-0.922804 

> <ConfScore>
8.78926 

> <ConfScorePBest>
0.00572546 

> <ConfTolerance>
0.848976 

$$$$
L12.****
  PyMOL2.4          3D                             0

 24 24  0  0  0  0  0  0  0  0999 V2000
    0.1419   -0.8303    0.2814 C   0  0  0  1  0  0  0  0  0  0  0  0
    0.2371   -1.0880    1.3156 H   0  0  0  1  0  0  0  0  0  0  0  0
    0.0822   -2.1100   -0.3396 O   0  0  0  1  0  0  0  0  0  0  0  0
    0.2302   -2.0154   -1.2834 H   0  0  0  1  0  0  0  0  0  0  0  0
   -0.5995   -0.5030    0.1235 C   0  0  0  1  0  0  0  0  0  0  0  0
   -1.2687   -1.2458   -0.2579 H   0  0  0  1  0  0  0  0  0  0  0  0
   -1.1737   -0.2200    1.4008 O   0  0  0  1  0  0  0  0  0  0  0  0
   -1.8455   -0.8753    1.6025 H   0  0  0  1  0  0  0  0  0  0  0  0
   -0.6580    0.1945   -0.3113 C   0  0  0  1  0  0  0  0  0  0  0  0
   -1.3655    0.0783   -1.1055 H   0  0  0  1  0  0  0  0  0  0  0  0
    0.7663    0.2391   -0.4313 C   0  0  0  1  0  0  0  0  0  0  0  0
    1.3770    0.2080   -1.3093 H   0  0  0  1  0  0  0  0  0  0  0  0
    1.4576    1.1555    0.3866 O   0  0  0  1  0  0  0  0  0  0  0  0
    0.8615    1.8583    0.6553 H   0  0  0  1  0  0  0  0  0  0  0  0
    1.5488   -0.0607    1.1629 O   0  0  0  1  0  0  0  0  0  0  0  0
    2.4366   -0.4242    1.1267 H   0  0  0  1  0  0  0  0  0  0  0  0
    0.0248    0.5664   -0.5892 O   0  0  0  1  0  0  0  0  0  0  0  0
    0.8247   -0.4584    0.0035 C   0  0  0  1  0  0  0  0  0  0  0  0
    1.4940   -1.1554   -0.4560 H   0  0  0  1  0  0  0  0  0  0  0  0
   -1.3046    1.3014    0.4876 C   0  0  0  1  0  0  0  0  0  0  0  0
   -1.0456    2.2471    0.0592 H   0  0  0  1  0  0  0  0  0  0  0  0
   -0.9569    1.2601    1.4987 H   0  0  0  1  0  0  0  0  0  0  0  0
   -2.7172    1.1444    0.4668 O   0  0  0  1  0  0  0  0  0  0  0  0
   -3.0943    1.7237   -0.1993 H   0  0  0  1  0  0  0  0  0  0  0  0
  1  2  1  0  0  0  0
  1  3  1  0  0  0  0
  1  5  1  0  0  0  0
  1 18  1  0  0  0  0
  3  4  1  0  0  0  0
  5  6  1  0  0  0  0
  5  7  1  0  0  0  0
  5  9  1  0  0  0  0
  7  8  1  0  0  0  0
  9 10  1  0  0  0  0
  9 17  1  0  0  0  0
  9 20  1  0  0  0  0
 11 12  1  0  0  0  0
 11 13  1  0  0  0  0
 11 17  1  0  0  0  0
 11 18  1  0  0  0  0
 13 14  1  0  0  0  0
 15 16  1  0  0  0  0
 15 18  1  0  0  0  0
 18 19  1  0  0  0  0
 20 21  1  0  0  0  0
 20 22  1  0  0  0  0
 20 23  1  0  0  0  0
 23 24  1  0  0  0  0
M  END
> <ConfClashScore>
0.0792065 

> <ConfOneFourInteractionScore>
-0.922804 

> <ConfScore>
8.89369 

> <ConfScorePBest>
0.00562246 

> <ConfTolerance>
0.25 

$$$$
L12.****
  PyMOL2.4          3D                             0

 24 24  0  0  0  0  0  0  0  0999 V2000
    0.0879   -0.7442    0.1098 C   0  0  0  1  0  0  0  0  0  0  0  0
    0.1567   -1.1277    1.1063 H   0  0  0  1  0  0  0  0  0  0  0  0
    0.2077   -1.9339   -0.6630 O   0  0  0  1  0  0  0  0  0  0  0  0
    0.6761   -2.6002   -0.1548 H   0  0  0  1  0  0  0  0  0  0  0  0
   -0.6665   -0.4376   -0.0269 C   0  0  0  1  0  0  0  0  0  0  0  0
   -1.2805   -1.1437   -0.5458 H   0  0  0  1  0  0  0  0  0  0  0  0
   -1.2584   -0.4209    1.2629 O   0  0  0  1  0  0  0  0  0  0  0  0
   -1.5529   -1.3055    1.4918 H   0  0  0  1  0  0  0  0  0  0  0  0
   -0.7530    0.3189   -0.3417 C   0  0  0  1  0  0  0  0  0  0  0  0
   -1.4388    0.3131   -1.1630 H   0  0  0  1  0  0  0  0  0  0  0  0
    0.6689    0.4641   -0.3840 C   0  0  0  1  0  0  0  0  0  0  0  0
    1.3230    0.6288   -1.2146 H   0  0  0  1  0  0  0  0  0  0  0  0
    1.1902    1.3076    0.5903 O   0  0  0  1  0  0  0  0  0  0  0  0
    2.0678    1.5956    0.3287 H   0  0  0  1  0  0  0  0  0  0  0  0
    1.4517   -0.1173    1.1602 O   0  0  0  1  0  0  0  0  0  0  0  0
    1.7610   -0.9689    1.4774 H   0  0  0  1  0  0  0  0  0  0  0  0
   -0.0855    0.7707   -0.5206 O   0  0  0  1  0  0  0  0  0  0  0  0
    0.7555   -0.2925   -0.0692 C   0  0  0  1  0  0  0  0  0  0  0  0
    1.4577   -0.8634   -0.6401 H   0  0  0  1  0  0  0  0  0  0  0  0
   -1.5018    1.1722    0.6591 C   0  0  0  1  0  0  0  0  0  0  0  0
   -2.4250    0.6880    0.9004 H   0  0  0  1  0  0  0  0  0  0  0  0
   -1.7034    2.1247    0.2152 H   0  0  0  1  0  0  0  0  0  0  0  0
   -0.7658    1.3744    1.8582 O   0  0  0  1  0  0  0  0  0  0  0  0
   -1.0504    2.1910    2.2751 H   0  0  0  1  0  0  0  0  0  0  0  0
  1  2  1  0  0  0  0
  1  3  1  0  0  0  0
  1  5  1  0  0  0  0
  1 18  1  0  0  0  0
  3  4  1  0  0  0  0
  5  6  1  0  0  0  0
  5  7  1  0  0  0  0
  5  9  1  0  0  0  0
  7  8  1  0  0  0  0
  9 10  1  0  0  0  0
  9 17  1  0  0  0  0
  9 20  1  0  0  0  0
 11 12  1  0  0  0  0
 11 13  1  0  0  0  0
 11 17  1  0  0  0  0
 11 18  1  0  0  0  0
 13 14  1  0  0  0  0
 15 16  1  0  0  0  0
 15 18  1  0  0  0  0
 18 19  1  0  0  0  0
 20 21  1  0  0  0  0
 20 22  1  0  0  0  0
 20 23  1  0  0  0  0
 23 24  1  0  0  0  0
M  END
> <ConfClashScore>
0.0825718 

> <ConfOneFourInteractionScore>
-0.951485 

> <ConfScore>
8.92602 

> <ConfScorePBest>
0.00551946 

> <ConfTolerance>
0.25 

$$$$
L12.****
  PyMOL2.4          3D                             0

 24 24  0  0  0  0  0  0  0  0999 V2000
    0.2467   -0.6670   -0.0777 C   0  0  0  1  0  0  0  0  0  0  0  0
    0.5112   -1.2598   -0.9283 H   0  0  0  1  0  0  0  0  0  0  0  0
    0.1076   -1.6541    0.9386 O   0  0  0  1  0  0  0  0  0  0  0  0
    0.2102   -2.5274    0.5533 H   0  0  0  1  0  0  0  0  0  0  0  0
   -0.5152   -0.3590   -0.1577 C   0  0  0  1  0  0  0  0  0  0  0  0
   -0.9437   -0.6556   -1.0923 H   0  0  0  1  0  0  0  0  0  0  0  0
   -1.2699   -1.1426    0.7684 O   0  0  0  1  0  0  0  0  0  0  0  0
   -1.8750   -1.7122    0.2878 H   0  0  0  1  0  0  0  0  0  0  0  0
   -0.6533    0.4411   -0.0168 C   0  0  0  1  0  0  0  0  0  0  0  0
   -1.2165    0.8760   -0.8159 H   0  0  0  1  0  0  0  0  0  0  0  0
    0.7322    0.6271    0.2845 C   0  0  0  1  0  0  0  0  0  0  0  0
    1.1613    0.9242    1.2185 H   0  0  0  1  0  0  0  0  0  0  0  0
    1.5626    1.2914   -0.6405 O   0  0  0  1  0  0  0  0  0  0  0  0
    1.0355    1.5980   -1.3819 H   0  0  0  1  0  0  0  0  0  0  0  0
    1.3370   -0.7427    1.3618 O   0  0  0  1  0  0  0  0  0  0  0  0
    1.8813   -1.5097    1.1691 H   0  0  0  1  0  0  0  0  0  0  0  0
   -0.0298    0.9350    0.2045 O   0  0  0  1  0  0  0  0  0  0  0  0
    0.8702   -0.1730    0.1436 C   0  0  0  1  0  0  0  0  0  0  0  0
    1.7129   -0.3085   -0.5018 H   0  0  0  1  0  0  0  0  0  0  0  0
   -1.5983    0.6335    1.1458 C   0  0  0  1  0  0  0  0  0  0  0  0
   -2.3748   -0.1019    1.1109 H   0  0  0  1  0  0  0  0  0  0  0  0
   -2.0306    1.6115    1.1071 H   0  0  0  1  0  0  0  0  0  0  0  0
   -0.8419    0.4842    2.3400 O   0  0  0  1  0  0  0  0  0  0  0  0
   -1.2445   -0.1901    2.8921 H   0  0  0  1  0  0  0  0  0  0  0  0
  1  2  1  0  0  0  0
  1  3  1  0  0  0  0
  1  5  1  0  0  0  0
  1 18  1  0  0  0  0
  3  4  1  0  0  0  0
  5  6  1  0  0  0  0
  5  7  1  0  0  0  0
  5  9  1  0  0  0  0
  7  8  1  0  0  0  0
  9 10  1  0  0  0  0
  9 17  1  0  0  0  0
  9 20  1  0  0  0  0
 11 12  1  0  0  0  0
 11 13  1  0  0  0  0
 11 17  1  0  0  0  0
 11 18  1  0  0  0  0
 13 14  1  0  0  0  0
 15 16  1  0  0  0  0
 15 18  1  0  0  0  0
 18 19  1  0  0  0  0
 20 21  1  0  0  0  0
 20 22  1  0  0  0  0
 20 23  1  0  0  0  0
 23 24  1  0  0  0  0
M  END
> <ConfClashScore>
0.0821572 

> <ConfOneFourInteractionScore>
-0.978871 

> <ConfScore>
8.93974 

> <ConfScorePBest>
0.00541646 

> <ConfTolerance>
0.25 

$$$$
L12.****
  PyMOL2.4          3D                             0

 24 24  0  0  0  0  0  0  0  0999 V2000
    0.2190   -0.7163    0.5331 C   0  0  0  1  0  0  0  0  0  0  0  0
    0.4017   -1.0307    1.5394 H   0  0  0  1  0  0  0  0  0  0  0  0
    0.0850   -1.9596   -0.1473 O   0  0  0  1  0  0  0  0  0  0  0  0
    0.0507   -2.6735    0.4936 H   0  0  0  1  0  0  0  0  0  0  0  0
   -0.5285   -0.3732    0.4598 C   0  0  0  1  0  0  0  0  0  0  0  0
   -1.0561   -0.3813    1.3906 H   0  0  0  1  0  0  0  0  0  0  0  0
   -1.2664   -1.3208   -0.3142 O   0  0  0  1  0  0  0  0  0  0  0  0
   -1.3104   -1.0247   -1.2263 H   0  0  0  1  0  0  0  0  0  0  0  0
   -0.6147    0.3474    0.0697 C   0  0  0  1  0  0  0  0  0  0  0  0
   -1.3919    0.2822   -0.6628 H   0  0  0  1  0  0  0  0  0  0  0  0
    0.7938    0.3838   -0.1747 C   0  0  0  1  0  0  0  0  0  0  0  0
    1.5116    1.0975    0.1722 H   0  0  0  1  0  0  0  0  0  0  0  0
    1.2580    0.1002   -1.4663 O   0  0  0  1  0  0  0  0  0  0  0  0
    0.8992    0.7418   -2.0838 H   0  0  0  1  0  0  0  0  0  0  0  0
    1.7148   -0.1088    1.3458 O   0  0  0  1  0  0  0  0  0  0  0  0
    1.2680    0.4773    1.9610 H   0  0  0  1  0  0  0  0  0  0  0  0
    0.0463    0.7268   -0.2480 O   0  0  0  1  0  0  0  0  0  0  0  0
    0.8800   -0.3369    0.2154 C   0  0  0  1  0  0  0  0  0  0  0  0
    1.4702   -1.0171   -0.3625 H   0  0  0  1  0  0  0  0  0  0  0  0
   -1.1633    1.4012    0.9684 C   0  0  0  1  0  0  0  0  0  0  0  0
   -1.9098    1.9450    0.4281 H   0  0  0  1  0  0  0  0  0  0  0  0
   -0.3644    2.0608    1.2358 H   0  0  0  1  0  0  0  0  0  0  0  0
   -1.7478    0.9133    2.1568 O   0  0  0  1  0  0  0  0  0  0  0  0
   -2.4939    0.3498    1.9391 H   0  0  0  1  0  0  0  0  0  0  0  0
  1  2  1  0  0  0  0
  1  3  1  0  0  0  0
  1  5  1  0  0  0  0
  1 18  1  0  0  0  0
  3  4  1  0  0  0  0
  5  6  1  0  0  0  0
  5  7  1  0  0  0  0
  5  9  1  0  0  0  0
  7  8  1  0  0  0  0
  9 10  1  0  0  0  0
  9 17  1  0  0  0  0
  9 20  1  0  0  0  0
 11 12  1  0  0  0  0
 11 13  1  0  0  0  0
 11 17  1  0  0  0  0
 11 18  1  0  0  0  0
 13 14  1  0  0  0  0
 15 16  1  0  0  0  0
 15 18  1  0  0  0  0
 18 19  1  0  0  0  0
 20 21  1  0  0  0  0
 20 22  1  0  0  0  0
 20 23  1  0  0  0  0
 23 24  1  0  0  0  0
M  END
> <ConfClashScore>
0.0798713 

> <ConfOneFourInteractionScore>
-0.95967 

> <ConfScore>
8.9836 

> <ConfScorePBest>
0.00531345 

> <ConfTolerance>
0.804785 

$$$$
L12.****
  PyMOL2.4          3D                             0

 24 24  0  0  0  0  0  0  0  0999 V2000
    0.1256   -0.8118    0.0191 C   0  0  0  1  0  0  0  0  0  0  0  0
    0.3159   -1.6861   -0.5677 H   0  0  0  1  0  0  0  0  0  0  0  0
    0.0568   -1.3470    1.3364 O   0  0  0  1  0  0  0  0  0  0  0  0
    0.2239   -2.2919    1.3076 H   0  0  0  1  0  0  0  0  0  0  0  0
   -0.6173   -0.4946   -0.1521 C   0  0  0  1  0  0  0  0  0  0  0  0
   -1.1388   -1.0816   -0.8790 H   0  0  0  1  0  0  0  0  0  0  0  0
   -1.3647   -0.7501    1.0385 O   0  0  0  1  0  0  0  0  0  0  0  0
   -2.0905   -1.3460    0.8395 H   0  0  0  1  0  0  0  0  0  0  0  0
   -0.6971    0.3124   -0.2984 C   0  0  0  1  0  0  0  0  0  0  0  0
   -1.2628    0.4827   -1.1905 H   0  0  0  1  0  0  0  0  0  0  0  0
    0.7086    0.4870   -0.1027 C   0  0  0  1  0  0  0  0  0  0  0  0
    1.4313    0.8130   -0.8212 H   0  0  0  1  0  0  0  0  0  0  0  0
    1.1741    1.0901    1.0713 O   0  0  0  1  0  0  0  0  0  0  0  0
    1.6142    1.9154    0.8549 H   0  0  0  1  0  0  0  0  0  0  0  0
    1.7158   -0.8400   -0.9031 O   0  0  0  1  0  0  0  0  0  0  0  0
    2.6084   -0.7458   -0.5625 H   0  0  0  1  0  0  0  0  0  0  0  0
   -0.0343    0.8041   -0.2738 O   0  0  0  1  0  0  0  0  0  0  0  0
    0.7885   -0.3200    0.0436 C   0  0  0  1  0  0  0  0  0  0  0  0
    1.3178   -0.4716    0.9610 H   0  0  0  1  0  0  0  0  0  0  0  0
   -1.6086    0.8969    0.7421 C   0  0  0  1  0  0  0  0  0  0  0  0
   -1.3849    1.9378    0.8487 H   0  0  0  1  0  0  0  0  0  0  0  0
   -1.4336    0.3969    1.6718 H   0  0  0  1  0  0  0  0  0  0  0  0
   -2.9815    0.7580    0.4009 O   0  0  0  1  0  0  0  0  0  0  0  0
   -3.1535   -0.1456    0.1259 H   0  0  0  1  0  0  0  0  0  0  0  0
  1  2  1  0  0  0  0
  1  3  1  0  0  0  0
  1  5  1  0  0  0  0
  1 18  1  0  0  0  0
  3  4  1  0  0  0  0
  5  6  1  0  0  0  0
  5  7  1  0  0  0  0
  5  9  1  0  0  0  0
  7  8  1  0  0  0  0
  9 10  1  0  0  0  0
  9 17  1  0  0  0  0
  9 20  1  0  0  0  0
 11 12  1  0  0  0  0
 11 13  1  0  0  0  0
 11 17  1  0  0  0  0
 11 18  1  0  0  0  0
 13 14  1  0  0  0  0
 15 16  1  0  0  0  0
 15 18  1  0  0  0  0
 18 19  1  0  0  0  0
 20 21  1  0  0  0  0
 20 22  1  0  0  0  0
 20 23  1  0  0  0  0
 23 24  1  0  0  0  0
M  END
> <ConfClashScore>
0.0806387 

> <ConfOneFourInteractionScore>
-0.922804 

> <ConfScore>
9.03538 

> <ConfScorePBest>
0.00521045 

> <ConfTolerance>
0.25 

$$$$
L12.****
  PyMOL2.4          3D                             0

 24 24  0  0  0  0  0  0  0  0999 V2000
    0.1051   -0.7630   -0.1428 C   0  0  0  1  0  0  0  0  0  0  0  0
    0.1681   -1.5744   -0.8374 H   0  0  0  1  0  0  0  0  0  0  0  0
    0.3056   -1.4218    1.1032 O   0  0  0  1  0  0  0  0  0  0  0  0
    0.2235   -2.3705    0.9809 H   0  0  0  1  0  0  0  0  0  0  0  0
   -0.6560   -0.4432   -0.1273 C   0  0  0  1  0  0  0  0  0  0  0  0
   -1.3174   -0.9669   -0.7855 H   0  0  0  1  0  0  0  0  0  0  0  0
   -1.1447   -0.8226    1.1605 O   0  0  0  1  0  0  0  0  0  0  0  0
   -1.6789   -1.6161    1.0795 H   0  0  0  1  0  0  0  0  0  0  0  0
   -0.7613    0.3726   -0.1759 C   0  0  0  1  0  0  0  0  0  0  0  0
   -1.4811    0.6093   -0.9314 H   0  0  0  1  0  0  0  0  0  0  0  0
    0.6553    0.5508   -0.2555 C   0  0  0  1  0  0  0  0  0  0  0  0
    1.2259    0.9626   -1.0615 H   0  0  0  1  0  0  0  0  0  0  0  0
    1.2335    1.1565    0.8542 O   0  0  0  1  0  0  0  0  0  0  0  0
    1.9152    1.7682    0.5665 H   0  0  0  1  0  0  0  0  0  0  0  0
    1.6453   -0.5535    0.8705 O   0  0  0  1  0  0  0  0  0  0  0  0
    2.2409   -1.2618    0.6152 H   0  0  0  1  0  0  0  0  0  0  0  0
   -0.1058    0.8706   -0.2400 O   0  0  0  1  0  0  0  0  0  0  0  0
    0.7606   -0.2650   -0.2069 C   0  0  0  1  0  0  0  0  0  0  0  0
    1.3518   -0.5841   -1.0397 H   0  0  0  1  0  0  0  0  0  0  0  0
   -1.4185    0.9674    1.0366 C   0  0  0  1  0  0  0  0  0  0  0  0
   -2.4252    0.6138    1.1169 H   0  0  0  1  0  0  0  0  0  0  0  0
   -1.4195    2.0350    0.9649 H   0  0  0  1  0  0  0  0  0  0  0  0
   -0.6684    0.5581    2.1727 O   0  0  0  1  0  0  0  0  0  0  0  0
    0.0953    1.1307    2.2757 H   0  0  0  1  0  0  0  0  0  0  0  0
  1  2  1  0  0  0  0
  1  3  1  0  0  0  0
  1  5  1  0  0  0  0
  1 18  1  0  0  0  0
  3  4  1  0  0  0  0
  5  6  1  0  0  0  0
  5  7  1  0  0  0  0
  5  9  1  0  0  0  0
  7  8  1  0  0  0  0
  9 10  1  0  0  0  0
  9 17  1  0  0  0  0
  9 20  1  0  0  0  0
 11 12  1  0  0  0  0
 11 13  1  0  0  0  0
 11 17  1  0  0  0  0
 11 18  1  0  0  0  0
 13 14  1  0  0  0  0
 15 16  1  0  0  0  0
 15 18  1  0  0  0  0
 18 19  1  0  0  0  0
 20 21  1  0  0  0  0
 20 22  1  0  0  0  0
 20 23  1  0  0  0  0
 23 24  1  0  0  0  0
M  END
> <ConfClashScore>
0.0838477 

> <ConfOneFourInteractionScore>
-0.971319 

> <ConfScore>
9.26048 

> <ConfScorePBest>
0.00510745 

> <ConfTolerance>
0.857474 

$$$$
L12.****
  PyMOL2.4          3D                             0

 24 24  0  0  0  0  0  0  0  0999 V2000
    0.0728   -0.7095    0.3516 C   0  0  0  1  0  0  0  0  0  0  0  0
    0.2892   -1.5205   -0.3119 H   0  0  0  1  0  0  0  0  0  0  0  0
   -0.1196   -1.3988    1.5823 O   0  0  0  1  0  0  0  0  0  0  0  0
    0.6120   -2.0029    1.7290 H   0  0  0  1  0  0  0  0  0  0  0  0
   -0.6472   -0.3627    0.1439 C   0  0  0  1  0  0  0  0  0  0  0  0
   -1.4390   -0.7130    0.7727 H   0  0  0  1  0  0  0  0  0  0  0  0
   -1.0180   -0.8989   -1.1275 O   0  0  0  1  0  0  0  0  0  0  0  0
   -0.9854   -1.8577   -1.0928 H   0  0  0  1  0  0  0  0  0  0  0  0
   -0.6951    0.4522    0.0319 C   0  0  0  1  0  0  0  0  0  0  0  0
   -1.1708    0.6712   -0.9012 H   0  0  0  1  0  0  0  0  0  0  0  0
    0.6970    0.5756    0.3351 C   0  0  0  1  0  0  0  0  0  0  0  0
    1.2012    1.1210    1.1053 H   0  0  0  1  0  0  0  0  0  0  0  0
    1.5194    0.7840   -0.7844 O   0  0  0  1  0  0  0  0  0  0  0  0
    1.2331    1.5732   -1.2500 H   0  0  0  1  0  0  0  0  0  0  0  0
    1.6248   -0.7186   -0.5641 O   0  0  0  1  0  0  0  0  0  0  0  0
    1.7426   -1.6661   -0.4636 H   0  0  0  1  0  0  0  0  0  0  0  0
   -0.0230    0.9224    0.1274 O   0  0  0  1  0  0  0  0  0  0  0  0
    0.7448   -0.2393    0.4471 C   0  0  0  1  0  0  0  0  0  0  0  0
    1.2730   -0.4843    1.3448 H   0  0  0  1  0  0  0  0  0  0  0  0
   -1.6448    1.0876    0.9875 C   0  0  0  1  0  0  0  0  0  0  0  0
   -2.4937    1.4323    0.4348 H   0  0  0  1  0  0  0  0  0  0  0  0
   -1.1524    1.9213    1.4428 H   0  0  0  1  0  0  0  0  0  0  0  0
   -2.1046    0.2340    2.0133 O   0  0  0  1  0  0  0  0  0  0  0  0
   -2.8027    0.6719    2.5057 H   0  0  0  1  0  0  0  0  0  0  0  0
  1  2  1  0  0  0  0
  1  3  1  0  0  0  0
  1  5  1  0  0  0  0
  1 18  1  0  0  0  0
  3  4  1  0  0  0  0
  5  6  1  0  0  0  0
  5  7  1  0  0  0  0
  5  9  1  0  0  0  0
  7  8  1  0  0  0  0
  9 10  1  0  0  0  0
  9 17  1  0  0  0  0
  9 20  1  0  0  0  0
 11 12  1  0  0  0  0
 11 13  1  0  0  0  0
 11 17  1  0  0  0  0
 11 18  1  0  0  0  0
 13 14  1  0  0  0  0
 15 16  1  0  0  0  0
 15 18  1  0  0  0  0
 18 19  1  0  0  0  0
 20 21  1  0  0  0  0
 20 22  1  0  0  0  0
 20 23  1  0  0  0  0
 23 24  1  0  0  0  0
M  END
> <ConfClashScore>
0.082447 

> <ConfOneFourInteractionScore>
-0.95967 

> <ConfScore>
9.30764 

> <ConfScorePBest>
0.00500445 

> <ConfTolerance>
0.828678 

$$$$
L12.****
  PyMOL2.4          3D                             0

 24 24  0  0  0  0  0  0  0  0999 V2000
    0.2334   -0.7107    0.2932 C   0  0  0  1  0  0  0  0  0  0  0  0
    0.2483   -0.9711    1.3310 H   0  0  0  1  0  0  0  0  0  0  0  0
    0.4140   -1.9795   -0.3265 O   0  0  0  1  0  0  0  0  0  0  0  0
    0.2106   -2.6754    0.3028 H   0  0  0  1  0  0  0  0  0  0  0  0
   -0.5297   -0.5005    0.0582 C   0  0  0  1  0  0  0  0  0  0  0  0
   -1.0025   -1.3210   -0.4400 H   0  0  0  1  0  0  0  0  0  0  0  0
   -1.3231   -0.3895    1.2412 O   0  0  0  1  0  0  0  0  0  0  0  0
   -2.1829   -0.7885    1.0891 H   0  0  0  1  0  0  0  0  0  0  0  0
   -0.6542    0.1980   -0.3609 C   0  0  0  1  0  0  0  0  0  0  0  0
   -1.2708    0.0285   -1.2188 H   0  0  0  1  0  0  0  0  0  0  0  0
    0.7473    0.4777   -0.3109 C   0  0  0  1  0  0  0  0  0  0  0  0
    1.4657    0.6177   -1.0914 H   0  0  0  1  0  0  0  0  0  0  0  0
    1.0997    1.4505    0.6177 O   0  0  0  1  0  0  0  0  0  0  0  0
    0.5673    1.3454    1.4096 H   0  0  0  1  0  0  0  0  0  0  0  0
    1.7789   -0.9863   -0.6776 O   0  0  0  1  0  0  0  0  0  0  0  0
    2.6804   -0.7438   -0.4537 H   0  0  0  1  0  0  0  0  0  0  0  0
   -0.0158    0.6879   -0.5459 O   0  0  0  1  0  0  0  0  0  0  0  0
    0.8717   -0.2207    0.1082 C   0  0  0  1  0  0  0  0  0  0  0  0
    1.4560   -0.0283    0.9837 H   0  0  0  1  0  0  0  0  0  0  0  0
   -1.5275    1.1247    0.4542 C   0  0  0  1  0  0  0  0  0  0  0  0
   -1.2944    0.9932    1.4902 H   0  0  0  1  0  0  0  0  0  0  0  0
   -2.5524    0.8692    0.2834 H   0  0  0  1  0  0  0  0  0  0  0  0
   -1.3353    2.4912    0.1133 O   0  0  0  1  0  0  0  0  0  0  0  0
   -0.4835    2.7870    0.4429 H   0  0  0  1  0  0  0  0  0  0  0  0
  1  2  1  0  0  0  0
  1  3  1  0  0  0  0
  1  5  1  0  0  0  0
  1 18  1  0  0  0  0
  3  4  1  0  0  0  0
  5  6  1  0  0  0  0
  5  7  1  0  0  0  0
  5  9  1  0  0  0  0
  7  8  1  0  0  0  0
  9 10  1  0  0  0  0
  9 17  1  0  0  0  0
  9 20  1  0  0  0  0
 11 12  1  0  0  0  0
 11 13  1  0  0  0  0
 11 17  1  0  0  0  0
 11 18  1  0  0  0  0
 13 14  1  0  0  0  0
 15 16  1  0  0  0  0
 15 18  1  0  0  0  0
 18 19  1  0  0  0  0
 20 21  1  0  0  0  0
 20 22  1  0  0  0  0
 20 23  1  0  0  0  0
 23 24  1  0  0  0  0
M  END
> <ConfClashScore>
0.0836247 

> <ConfOneFourInteractionScore>
-0.980166 

> <ConfScore>
9.35529 

> <ConfScorePBest>
0.00490145 

> <ConfTolerance>
1.00404 

$$$$
