L12.****
     RDKit          3D

 24 24  0  0  0  0  0  0  0  0999 V2000
    0.0000   -0.8250    0.0000 C   0  0  2  0  0  0  0  0  0  0  0  0
    0.0000   -0.8250    1.0900 H   0  0  0  0  0  0  0  0  0  0  0  0
    0.0000   -1.6500    0.0000 O   0  0  0  0  0  0  0  0  0  0  0  0
    0.7930   -1.9400    0.4580 H   0  0  0  0  0  0  0  0  0  0  0  0
   -0.7150   -0.4120    0.0000 C   0  0  2  0  0  0  0  0  0  0  0  0
   -0.7150   -0.4120    1.0900 H   0  0  0  0  0  0  0  0  0  0  0  0
   -1.4290   -0.8250    0.0000 O   0  0  0  0  0  0  0  0  0  0  0  0
   -1.2830   -1.6560    0.4580 H   0  0  0  0  0  0  0  0  0  0  0  0
   -0.7150    0.4120    0.0000 C   0  0  2  0  0  0  0  0  0  0  0  0
   -0.7150    0.4120   -1.0900 H   0  0  0  0  0  0  0  0  0  0  0  0
    0.7150    0.4120    0.0000 C   0  0  2  0  0  0  0  0  0  0  0  0
    0.7150    0.4120   -1.0900 H   0  0  0  0  0  0  0  0  0  0  0  0
    1.4290    0.8250    0.0000 O   0  0  0  0  0  0  0  0  0  0  0  0
    1.6800    0.9700    0.9150 H   0  0  0  0  0  0  0  0  0  0  0  0
    1.4290   -0.8250    0.0000 O   0  0  0  0  0  0  0  0  0  0  0  0
    2.0770   -0.2840   -0.4580 H   0  0  0  0  0  0  0  0  0  0  0  0
    0.0000    0.8250    0.0000 O   0  0  0  0  0  0  0  0  0  0  0  0
    0.7150   -0.4120    0.0000 C   0  0  0  0  0  0  0  0  0  0  0  0
    0.7150   -0.4120    1.0900 H   0  0  0  0  0  0  0  0  0  0  0  0
   -1.4290    0.8250    0.0000 C   0  0  0  0  0  0  0  0  0  0  0  0
   -1.4290    1.4540   -0.8900 H   0  0  0  0  0  0  0  0  0  0  0  0
   -1.4290    1.4540    0.8900 H   0  0  0  0  0  0  0  0  0  0  0  0
   -2.1430    0.4120    0.0000 O   0  0  0  0  0  0  0  0  0  0  0  0
   -1.9360   -0.5250   -0.0000 H   0  0  0  0  0  0  0  0  0  0  0  0
  1  2  1  6
  1  3  1  0
  1  5  1  0
  1 18  1  0
  3  4  1  0
  5  6  1  6
  5  7  1  0
  5  9  1  0
  7  8  1  0
  9 10  1  6
  9 17  1  0
  9 20  1  0
 11 12  1  6
 11 13  1  0
 11 17  1  0
 11 18  1  0
 13 14  1  0
 15 16  1  0
 15 18  1  0
 18 19  1  0
 20 21  1  0
 20 22  1  0
 20 23  1  0
 23 24  1  0
M  END
