# created with PyMOL 2.5.2
@<TRIPOS>MOLECULE
ChEBI
36 38 1                 
SMALL
USER_CHARGES
@<TRIPOS>ATOM
1	   C	23.867	-10.156	0.000	C.3	1	UNK0	0.000	
2	   N	24.657	-9.898	0.000	N.pl3	1	UNK0	0.000	
3	   O	23.224	-9.685	0.000	O.3	1	UNK0	0.000	
4	   C	23.626	-10.963	0.000	C.3	1	UNK0	0.000	
5	   C	25.276	-10.448	0.000	C.2	1	UNK0	0.000	
6	   C	24.829	-9.090	0.000	C.2	1	UNK0	0.000	
7	   C	22.553	-10.176	0.000	C.3	1	UNK0	0.000	
8	   C	22.798	-10.963	0.000	C.3	1	UNK0	0.000	
9	   O	24.111	-11.627	0.000	O.3	1	UNK0	0.000	
10	   N	26.063	-10.187	0.000	N.pl3	1	UNK0	0.000	
11	   O	25.111	-11.252	0.000	O.2	1	UNK0	0.000	
12	   C	25.605	-8.826	0.000	C.2	1	UNK0	0.000	
13	   C	21.767	-9.922	0.000	C.3	1	UNK0	0.000	
14	   O	22.309	-11.623	0.000	O.3	1	UNK0	0.000	
15	   C	26.231	-9.379	0.000	C.2	1	UNK0	0.000	
16	   O	21.182	-10.496	0.000	O.3	1	UNK0	0.000	
17	   O	27.015	-9.121	0.000	O.2	1	UNK0	0.000	
18	   P	20.361	-10.496	0.000	P.3	1	UNK0	0.000	
19	   O	19.539	-10.496	0.000	O.3	1	UNK0	0.000	
20	   O	20.357	-11.317	0.000	O.co2	1	UNK0	0.000	
21	   O	20.357	-9.675	0.000	O.co2	1	UNK0	0.000	
22	   P	18.718	-10.493	0.000	P.3	1	UNK0	0.000	
23	   O	18.711	-11.314	0.000	O.co2	1	UNK0	0.000	
24	   O	18.711	-9.668	0.000	O.co2	1	UNK0	0.000	
25	   O	17.893	-10.493	0.000	O.3	1	UNK0	0.000	
26	   C	17.179	-10.905	0.000	C.3	1	UNK0	0.000	
27	   C	17.179	-11.730	0.000	C.3	1	UNK0	0.000	
28	   O	17.893	-12.143	0.000	O.3	1	UNK0	0.000	
29	   C	15.750	-11.730	0.000	C.3	1	UNK0	0.000	
30	   O	15.035	-12.143	0.000	O.3	1	UNK0	0.000	
31	   C	16.464	-12.143	0.000	C.3	1	UNK0	0.000	
32	   C	15.750	-10.905	0.000	C.3	1	UNK0	0.000	
33	   C	15.035	-10.493	0.000	C.3	1	UNK0	0.000	
34	   O	14.321	-10.905	0.000	O.3	1	UNK0	0.000	
35	   O	16.464	-10.493	0.000	O.3	1	UNK0	0.000	
36	   O	16.464	-12.968	0.000	O.3	1	UNK0	0.000	
@<TRIPOS>BOND
1 1 2 1
2 1 3 1
3 1 4 1
4 2 5 1
5 2 6 1
6 3 7 1
7 4 8 1
8 4 9 1
9 5 10 1
10 5 11 2
11 6 12 2
12 7 8 1
13 7 13 1
14 8 14 1
15 10 15 1
16 12 15 1
17 13 16 1
18 15 17 2
19 16 18 1
20 18 19 1
21 18 20 1
22 18 21 2
23 19 22 1
24 22 23 1
25 22 24 2
26 22 25 1
27 25 26 1
28 26 27 1
29 27 28 1
30 29 30 1
31 29 31 1
32 27 31 1
33 31 36 1
34 29 32 1
35 32 33 1
36 33 34 1
37 26 35 1
38 32 35 1
@<TRIPOS>SUBSTRUCTURE
1	UNK0	1	GROUP	1 ****	UNK
