ChEBI.****
  PyMOL2.5          3D                             0

 58 60  0  0  0  0  0  0  0  0999 V2000
   11.5907   -5.4601    0.1141 C   0  0  0  1  0  0  0  0  0  0  0  0
   10.9095   -6.2215   -0.2039 H   0  0  0  1  0  0  0  0  0  0  0  0
   10.9122   -4.5568    1.0589 N   0  0  0  1  0  0  0  0  0  0  0  0
   12.6997   -6.0399    0.7246 O   0  0  0  1  0  0  0  0  0  0  0  0
   12.0948   -4.6632   -1.1049 C   0  0  0  1  0  0  0  0  0  0  0  0
   11.3704   -4.6593   -1.8924 H   0  0  0  1  0  0  0  0  0  0  0  0
    9.5708   -4.2780    0.8747 C   0  0  0  1  0  0  0  0  0  0  0  0
   11.6500   -4.0019    2.1250 C   0  0  0  1  0  0  0  0  0  0  0  0
   12.6579   -4.2366    2.2279 H   0  0  0  1  0  0  0  0  0  0  0  0
   13.8359   -6.0355   -0.1765 C   0  0  0  1  0  0  0  0  0  0  0  0
   14.6219   -5.4315    0.2263 H   0  0  0  1  0  0  0  0  0  0  0  0
   13.3498   -5.4485   -1.5073 C   0  0  0  1  0  0  0  0  0  0  0  0
   13.1101   -6.2243   -2.2042 H   0  0  0  1  0  0  0  0  0  0  0  0
   12.4176   -3.3186   -0.7473 O   0  0  0  1  0  0  0  0  0  0  0  0
   12.6992   -3.2898    0.1701 H   0  0  0  1  0  0  0  0  0  0  0  0
    9.0160   -3.4187    1.7770 N   0  0  0  1  0  0  0  0  0  0  0  0
    8.0664   -3.2077    1.6580 H   0  0  0  1  0  0  0  0  0  0  0  0
    8.9248   -4.7689   -0.0364 O   0  0  0  1  0  0  0  0  0  0  0  0
   11.0641   -3.1675    3.0165 C   0  0  0  1  0  0  0  0  0  0  0  0
   11.6106   -2.7842    3.8140 H   0  0  0  1  0  0  0  0  0  0  0  0
   14.3330   -7.4287   -0.3816 C   0  0  0  1  0  0  0  0  0  0  0  0
   15.0352   -7.4498   -1.1887 H   0  0  0  1  0  0  0  0  0  0  0  0
   13.5131   -8.0790   -0.6044 H   0  0  0  1  0  0  0  0  0  0  0  0
   14.3345   -4.5842   -2.0761 O   0  0  0  1  0  0  0  0  0  0  0  0
   15.2109   -4.9071   -1.8542 H   0  0  0  1  0  0  0  0  0  0  0  0
    9.6613   -2.8119    2.8484 C   0  0  0  1  0  0  0  0  0  0  0  0
   14.9728   -7.8470    0.8346 O   0  0  0  1  0  0  0  0  0  0  0  0
    9.0910   -2.0335    3.5979 O   0  0  0  1  0  0  0  0  0  0  0  0
   15.5295   -9.2316    1.1004 P   0  0  0  1  0  0  0  0  0  0  0  0
   16.6243   -9.3515   -0.0702 O   0  0  0  1  0  0  0  0  0  0  0  0
   16.1666   -9.4038    2.4564 O   0  0  0  0  0  0  0  0  0  0  0  0
   14.4915  -10.2012    0.7328 O   0  0  0  1  0  0  0  0  0  0  0  0
   18.1209  -10.0462    0.0087 P   0  0  0  1  0  0  0  0  0  0  0  0
   18.9133   -8.9725    0.7377 O   0  0  0  0  0  0  0  0  0  0  0  0
   17.9544  -11.3119    0.7988 O   0  0  0  1  0  0  0  0  0  0  0  0
   18.6303  -10.2557   -1.4691 O   0  0  0  1  0  0  0  0  0  0  0  0
   18.0757  -11.3440   -2.1662 C   0  0  0  1  0  0  0  0  0  0  0  0
   17.0500  -11.4626   -1.8857 H   0  0  0  1  0  0  0  0  0  0  0  0
   18.8483  -12.6177   -1.8171 C   0  0  0  1  0  0  0  0  0  0  0  0
   18.7190  -12.8351   -0.7774 H   0  0  0  1  0  0  0  0  0  0  0  0
   20.2353  -12.4181   -2.0936 O   0  0  0  1  0  0  0  0  0  0  0  0
   20.4300  -12.7137   -2.9859 H   0  0  0  1  0  0  0  0  0  0  0  0
   18.3353  -13.4511   -4.1291 C   0  0  0  1  0  0  0  0  0  0  0  0
   19.3439  -13.3554   -4.4733 H   0  0  0  1  0  0  0  0  0  0  0  0
   17.6839  -14.4997   -4.8476 O   0  0  0  1  0  0  0  0  0  0  0  0
   17.6280  -14.2648   -5.7767 H   0  0  0  1  0  0  0  0  0  0  0  0
   18.3379  -13.7838   -2.6386 C   0  0  0  1  0  0  0  0  0  0  0  0
   18.9696  -14.6311   -2.4715 H   0  0  0  1  0  0  0  0  0  0  0  0
   17.5931  -12.1387   -4.3648 C   0  0  0  1  0  0  0  0  0  0  0  0
   16.5647  -12.2632   -4.0969 H   0  0  0  1  0  0  0  0  0  0  0  0
   17.6916  -11.7698   -5.8171 C   0  0  0  1  0  0  0  0  0  0  0  0
   17.1721  -10.8499   -5.9864 H   0  0  0  1  0  0  0  0  0  0  0  0
   17.2512  -12.5432   -6.4111 H   0  0  0  1  0  0  0  0  0  0  0  0
   19.0572  -11.6150   -6.1801 O   0  0  0  1  0  0  0  0  0  0  0  0
   19.1618  -11.7936   -7.1175 H   0  0  0  1  0  0  0  0  0  0  0  0
   18.1582  -11.0974   -3.5787 O   0  0  0  1  0  0  0  0  0  0  0  0
   17.0054  -14.0942   -2.2286 O   0  0  0  1  0  0  0  0  0  0  0  0
   16.3912  -13.4882   -2.6495 H   0  0  0  1  0  0  0  0  0  0  0  0
  1  2  1  0  0  0  0
  1  3  1  0  0  0  0
  1  4  1  0  0  0  0
  1  5  1  0  0  0  0
  3  7  1  0  0  0  0
  3  8  1  0  0  0  0
  4 10  1  0  0  0  0
  5  6  1  0  0  0  0
  5 12  1  0  0  0  0
  5 14  1  0  0  0  0
  7 16  1  0  0  0  0
  7 18  2  0  0  0  0
  8  9  1  0  0  0  0
  8 19  2  0  0  0  0
 10 11  1  0  0  0  0
 10 12  1  0  0  0  0
 10 21  1  0  0  0  0
 12 13  1  0  0  0  0
 12 24  1  0  0  0  0
 14 15  1  0  0  0  0
 16 17  1  0  0  0  0
 16 26  1  0  0  0  0
 19 20  1  0  0  0  0
 19 26  1  0  0  0  0
 21 22  1  0  0  0  0
 21 23  1  0  0  0  0
 21 27  1  0  0  0  0
 24 25  1  0  0  0  0
 26 28  2  0  0  0  0
 27 29  1  0  0  0  0
 29 30  1  0  0  0  0
 29 31  1  0  0  0  0
 29 32  2  0  0  0  0
 30 33  1  0  0  0  0
 33 34  1  0  0  0  0
 33 35  2  0  0  0  0
 33 36  1  0  0  0  0
 36 37  1  0  0  0  0
 37 38  1  0  0  0  0
 37 39  1  0  0  0  0
 37 56  1  0  0  0  0
 39 40  1  0  0  0  0
 39 41  1  0  0  0  0
 39 47  1  0  0  0  0
 41 42  1  0  0  0  0
 43 44  1  0  0  0  0
 43 45  1  0  0  0  0
 43 47  1  0  0  0  0
 43 49  1  0  0  0  0
 45 46  1  0  0  0  0
 47 48  1  0  0  0  0
 47 57  1  0  0  0  0
 49 50  1  0  0  0  0
 49 51  1  0  0  0  0
 49 56  1  0  0  0  0
 51 52  1  0  0  0  0
 51 53  1  0  0  0  0
 51 54  1  0  0  0  0
 54 55  1  0  0  0  0
 57 58  1  0  0  0  0
M  BCL ATM C_TeTeTeTe H_S N_TrTrTrPi2 O_Te2Te2TeTe C_TeTeTeTe H_S C_TrTrTrPi C_TrTrTrPi H_S C_TeTeTeTe H_S C_TeTeTeTe H_S O_Te2Te2TeTe H_S N_TrTrTrPi2 H_S O_Tr2Tr2TrPi C_TrTrTrPi H_S C_TeTeTeTe H_S H_S O_Te2Te2TeTe H_S C_TrTrTrPi O_Tr2TrTrPi2 O_Tr2Tr2TrPi P_TeTeTeTePi O_Tr2TrTrPi2 O_Te2Te2TeTe O_Tr2Tr2TrPi P_TeTeTeTePi O_Te2Te2TeTe O_Tr2Tr2TrPi O_Tr2TrTrPi2 C_TeTeTeTe H_S C_TeTeTeTe H_S O_Te2Te2TeTe H_S C_TeTeTeTe H_S O_Te2Te2TeTe H_S C_TeTeTeTe H_S C_TeTeTeTe H_S C_TeTeTeTe H_S H_S O_Te2Te2TeTe H_S O_Te2Te2TeTe O_Te2Te2TeTe H_S
M  BCL BND NonConjugatedSingleBond NonConjugatedSingleBond NonConjugatedSingleBondInRing NonConjugatedSingleBondInRing ConjugatedSingleBondInRing ConjugatedSingleBondInRing NonConjugatedSingleBondInRing NonConjugatedSingleBond NonConjugatedSingleBondInRing NonConjugatedSingleBond ConjugatedSingleBondInRing ConjugatedDoubleBond NonConjugatedSingleBond ConjugatedDoubleBondInRing NonConjugatedSingleBond NonConjugatedSingleBondInRing NonConjugatedSingleBond NonConjugatedSingleBond NonConjugatedSingleBond NonConjugatedSingleBond NonConjugatedSingleBond ConjugatedSingleBondInRing NonConjugatedSingleBond ConjugatedSingleBondInRing NonConjugatedSingleBond NonConjugatedSingleBond NonConjugatedSingleBond NonConjugatedSingleBond ConjugatedDoubleBond ConjugatedSingleBond ConjugatedSingleBond ConjugatedSingleBond ConjugatedDoubleBond ConjugatedSingleBond ConjugatedSingleBond ConjugatedDoubleBond ConjugatedSingleBond NonConjugatedSingleBond NonConjugatedSingleBond NonConjugatedSingleBondInRing NonConjugatedSingleBondInRing NonConjugatedSingleBond NonConjugatedSingleBond NonConjugatedSingleBondInRing NonConjugatedSingleBond NonConjugatedSingleBond NonConjugatedSingleBond NonConjugatedSingleBondInRing NonConjugatedSingleBondInRing NonConjugatedSingleBond NonConjugatedSingleBond NonConjugatedSingleBond NonConjugatedSingleBond NonConjugatedSingleBond NonConjugatedSingleBondInRing NonConjugatedSingleBond NonConjugatedSingleBond NonConjugatedSingleBond NonConjugatedSingleBond NonConjugatedSingleBond
M  BCL CHI   1   S   5   S  10   S  12   R  29   S  33   R  37   S  39   R  43   R  47   R  49   S
M  BCL DBI - Z - - -
M  END
> <ConfClashScore>
0 

> <ConfOneFourInteractionScore>
-0.980187 

> <ConfScore>
-0.211752 

> <ConfScorePBest>
0.0150985 

> <ConfTolerance>
1.57728 

$$$$
ChEBI.****
  PyMOL2.5          3D                             0

 58 60  0  0  0  0  0  0  0  0999 V2000
   22.5054   -7.9525   -5.1984 C   0  0  0  1  0  0  0  0  0  0  0  0
   22.8089   -6.9431   -5.3824 H   0  0  0  1  0  0  0  0  0  0  0  0
   23.5763   -8.8754   -5.6275 N   0  0  0  1  0  0  0  0  0  0  0  0
   22.2443   -8.1290   -3.8345 O   0  0  0  1  0  0  0  0  0  0  0  0
   21.2128   -8.2578   -5.9717 C   0  0  0  1  0  0  0  0  0  0  0  0
   21.0300   -7.5191   -6.7240 H   0  0  0  1  0  0  0  0  0  0  0  0
   24.4196   -8.5053   -6.6396 C   0  0  0  1  0  0  0  0  0  0  0  0
   23.7111  -10.0970   -5.0021 C   0  0  0  1  0  0  0  0  0  0  0  0
   23.0499  -10.3292   -4.2336 H   0  0  0  1  0  0  0  0  0  0  0  0
   20.8891   -8.6330   -3.6315 C   0  0  0  1  0  0  0  0  0  0  0  0
   20.8912   -9.6989   -3.5382 H   0  0  0  1  0  0  0  0  0  0  0  0
   20.1418   -8.2058   -4.8739 C   0  0  0  1  0  0  0  0  0  0  0  0
   19.7539   -7.2146   -4.7649 H   0  0  0  1  0  0  0  0  0  0  0  0
   21.2678   -9.5506   -6.5763 O   0  0  0  1  0  0  0  0  0  0  0  0
   21.6525  -10.1770   -5.9589 H   0  0  0  1  0  0  0  0  0  0  0  0
   25.3857   -9.4354   -6.9561 N   0  0  0  1  0  0  0  0  0  0  0  0
   26.0086   -9.1925   -7.6726 H   0  0  0  1  0  0  0  0  0  0  0  0
   24.3234   -7.4349   -7.2170 O   0  0  0  1  0  0  0  0  0  0  0  0
   24.6471  -11.0052   -5.3275 C   0  0  0  1  0  0  0  0  0  0  0  0
   24.7000  -11.9207   -4.8368 H   0  0  0  1  0  0  0  0  0  0  0  0
   20.2726   -8.0229   -2.4030 C   0  0  0  1  0  0  0  0  0  0  0  0
   19.2248   -8.2368   -2.3657 H   0  0  0  1  0  0  0  0  0  0  0  0
   20.4212   -6.9633   -2.3978 H   0  0  0  1  0  0  0  0  0  0  0  0
   19.0721   -9.1075   -5.1614 O   0  0  0  1  0  0  0  0  0  0  0  0
   18.7432   -8.9422   -6.0481 H   0  0  0  1  0  0  0  0  0  0  0  0
   25.5703  -10.6717   -6.3725 C   0  0  0  1  0  0  0  0  0  0  0  0
   20.9542   -8.6349   -1.2788 O   0  0  0  1  0  0  0  0  0  0  0  0
   26.4713  -11.4405   -6.7269 O   0  0  0  1  0  0  0  0  0  0  0  0
   20.7099   -8.1112    0.2112 P   0  0  0  1  0  0  0  0  0  0  0  0
   19.1891   -8.5985    0.3868 O   0  0  0  1  0  0  0  0  0  0  0  0
   21.5677   -8.8414    1.1795 O   0  0  0  0  0  0  0  0  0  0  0  0
   20.7296   -6.6210    0.1631 O   0  0  0  1  0  0  0  0  0  0  0  0
   18.4263   -9.8968   -0.0806 P   0  0  0  1  0  0  0  0  0  0  0  0
   19.0805  -11.1247    0.5482 O   0  0  0  0  0  0  0  0  0  0  0  0
   16.9923   -9.7220    0.2857 O   0  0  0  1  0  0  0  0  0  0  0  0
   18.6552  -10.0750   -1.6257 O   0  0  0  1  0  0  0  0  0  0  0  0
   18.0733  -11.1846   -2.2709 C   0  0  0  1  0  0  0  0  0  0  0  0
   17.0427  -11.2593   -1.9933 H   0  0  0  1  0  0  0  0  0  0  0  0
   18.8066  -12.4596   -1.8491 C   0  0  0  1  0  0  0  0  0  0  0  0
   18.6639  -12.6183   -0.8006 H   0  0  0  1  0  0  0  0  0  0  0  0
   20.2007  -12.3140   -2.1239 O   0  0  0  1  0  0  0  0  0  0  0  0
   20.4842  -13.0107   -2.7205 H   0  0  0  1  0  0  0  0  0  0  0  0
   18.2861  -13.3985   -4.1186 C   0  0  0  1  0  0  0  0  0  0  0  0
   19.2994  -13.3495   -4.4587 H   0  0  0  1  0  0  0  0  0  0  0  0
   17.6099  -14.4646   -4.7867 O   0  0  0  1  0  0  0  0  0  0  0  0
   17.8053  -14.4292   -5.7260 H   0  0  0  1  0  0  0  0  0  0  0  0
   18.2687  -13.6523   -2.6128 C   0  0  0  1  0  0  0  0  0  0  0  0
   18.8746  -14.5072   -2.3962 H   0  0  0  1  0  0  0  0  0  0  0  0
   17.5835  -12.0798   -4.4290 C   0  0  0  1  0  0  0  0  0  0  0  0
   16.5501  -12.1609   -4.1636 H   0  0  0  1  0  0  0  0  0  0  0  0
   17.7028  -11.7903   -5.8999 C   0  0  0  1  0  0  0  0  0  0  0  0
   17.2116  -10.8628   -6.1083 H   0  0  0  1  0  0  0  0  0  0  0  0
   17.2252  -12.5777   -6.4447 H   0  0  0  1  0  0  0  0  0  0  0  0
   19.0555  -11.6958   -6.3266 O   0  0  0  1  0  0  0  0  0  0  0  0
   19.3631  -10.7928   -6.2192 H   0  0  0  1  0  0  0  0  0  0  0  0
   18.1727  -11.0150   -3.6936 O   0  0  0  1  0  0  0  0  0  0  0  0
   16.9228  -13.9034   -2.1977 O   0  0  0  1  0  0  0  0  0  0  0  0
   16.6891  -14.8121   -2.4005 H   0  0  0  1  0  0  0  0  0  0  0  0
  1  2  1  0  0  0  0
  1  3  1  0  0  0  0
  1  4  1  0  0  0  0
  1  5  1  0  0  0  0
  3  7  1  0  0  0  0
  3  8  1  0  0  0  0
  4 10  1  0  0  0  0
  5  6  1  0  0  0  0
  5 12  1  0  0  0  0
  5 14  1  0  0  0  0
  7 16  1  0  0  0  0
  7 18  2  0  0  0  0
  8  9  1  0  0  0  0
  8 19  2  0  0  0  0
 10 11  1  0  0  0  0
 10 12  1  0  0  0  0
 10 21  1  0  0  0  0
 12 13  1  0  0  0  0
 12 24  1  0  0  0  0
 14 15  1  0  0  0  0
 16 17  1  0  0  0  0
 16 26  1  0  0  0  0
 19 20  1  0  0  0  0
 19 26  1  0  0  0  0
 21 22  1  0  0  0  0
 21 23  1  0  0  0  0
 21 27  1  0  0  0  0
 24 25  1  0  0  0  0
 26 28  2  0  0  0  0
 27 29  1  0  0  0  0
 29 30  1  0  0  0  0
 29 31  1  0  0  0  0
 29 32  2  0  0  0  0
 30 33  1  0  0  0  0
 33 34  1  0  0  0  0
 33 35  2  0  0  0  0
 33 36  1  0  0  0  0
 36 37  1  0  0  0  0
 37 38  1  0  0  0  0
 37 39  1  0  0  0  0
 37 56  1  0  0  0  0
 39 40  1  0  0  0  0
 39 41  1  0  0  0  0
 39 47  1  0  0  0  0
 41 42  1  0  0  0  0
 43 44  1  0  0  0  0
 43 45  1  0  0  0  0
 43 47  1  0  0  0  0
 43 49  1  0  0  0  0
 45 46  1  0  0  0  0
 47 48  1  0  0  0  0
 47 57  1  0  0  0  0
 49 50  1  0  0  0  0
 49 51  1  0  0  0  0
 49 56  1  0  0  0  0
 51 52  1  0  0  0  0
 51 53  1  0  0  0  0
 51 54  1  0  0  0  0
 54 55  1  0  0  0  0
 57 58  1  0  0  0  0
M  BCL ATM C_TeTeTeTe H_S N_TrTrTrPi2 O_Te2Te2TeTe C_TeTeTeTe H_S C_TrTrTrPi C_TrTrTrPi H_S C_TeTeTeTe H_S C_TeTeTeTe H_S O_Te2Te2TeTe H_S N_TrTrTrPi2 H_S O_Tr2Tr2TrPi C_TrTrTrPi H_S C_TeTeTeTe H_S H_S O_Te2Te2TeTe H_S C_TrTrTrPi O_Tr2TrTrPi2 O_Tr2Tr2TrPi P_TeTeTeTePi O_Tr2TrTrPi2 O_Te2Te2TeTe O_Tr2Tr2TrPi P_TeTeTeTePi O_Te2Te2TeTe O_Tr2Tr2TrPi O_Tr2TrTrPi2 C_TeTeTeTe H_S C_TeTeTeTe H_S O_Te2Te2TeTe H_S C_TeTeTeTe H_S O_Te2Te2TeTe H_S C_TeTeTeTe H_S C_TeTeTeTe H_S C_TeTeTeTe H_S H_S O_Te2Te2TeTe H_S O_Te2Te2TeTe O_Te2Te2TeTe H_S
M  BCL BND NonConjugatedSingleBond NonConjugatedSingleBond NonConjugatedSingleBondInRing NonConjugatedSingleBondInRing ConjugatedSingleBondInRing ConjugatedSingleBondInRing NonConjugatedSingleBondInRing NonConjugatedSingleBond NonConjugatedSingleBondInRing NonConjugatedSingleBond ConjugatedSingleBondInRing ConjugatedDoubleBond NonConjugatedSingleBond ConjugatedDoubleBondInRing NonConjugatedSingleBond NonConjugatedSingleBondInRing NonConjugatedSingleBond NonConjugatedSingleBond NonConjugatedSingleBond NonConjugatedSingleBond NonConjugatedSingleBond ConjugatedSingleBondInRing NonConjugatedSingleBond ConjugatedSingleBondInRing NonConjugatedSingleBond NonConjugatedSingleBond NonConjugatedSingleBond NonConjugatedSingleBond ConjugatedDoubleBond ConjugatedSingleBond ConjugatedSingleBond ConjugatedSingleBond ConjugatedDoubleBond ConjugatedSingleBond ConjugatedSingleBond ConjugatedDoubleBond ConjugatedSingleBond NonConjugatedSingleBond NonConjugatedSingleBond NonConjugatedSingleBondInRing NonConjugatedSingleBondInRing NonConjugatedSingleBond NonConjugatedSingleBond NonConjugatedSingleBondInRing NonConjugatedSingleBond NonConjugatedSingleBond NonConjugatedSingleBond NonConjugatedSingleBondInRing NonConjugatedSingleBondInRing NonConjugatedSingleBond NonConjugatedSingleBond NonConjugatedSingleBond NonConjugatedSingleBond NonConjugatedSingleBond NonConjugatedSingleBondInRing NonConjugatedSingleBond NonConjugatedSingleBond NonConjugatedSingleBond NonConjugatedSingleBond NonConjugatedSingleBond
M  BCL CHI   1   S   5   S  10   S  12   R  29   S  33   R  37   S  39   R  43   R  47   R  49   S
M  BCL DBI - Z - - -
M  END
> <ConfClashScore>
0 

> <ConfOneFourInteractionScore>
-0.978511 

> <ConfScore>
-0.19265 

> <ConfScorePBest>
0.0149955 

> <ConfTolerance>
1.76883 

$$$$
ChEBI.****
  PyMOL2.5          3D                             0

 58 60  0  0  0  0  0  0  0  0999 V2000
   21.5092   -9.7863    5.2100 C   0  0  0  1  0  0  0  0  0  0  0  0
   21.1940   -8.7707    5.3291 H   0  0  0  1  0  0  0  0  0  0  0  0
   22.1111  -10.2616    6.4595 N   0  0  0  1  0  0  0  0  0  0  0  0
   20.3924  -10.6234    4.8343 O   0  0  0  1  0  0  0  0  0  0  0  0
   22.5054   -9.9079    4.0531 C   0  0  0  1  0  0  0  0  0  0  0  0
   22.3956   -9.0958    3.3651 H   0  0  0  1  0  0  0  0  0  0  0  0
   22.9559   -9.4406    7.1557 C   0  0  0  1  0  0  0  0  0  0  0  0
   21.8175  -11.5294    6.9156 C   0  0  0  1  0  0  0  0  0  0  0  0
   21.1644  -12.1125    6.3543 H   0  0  0  1  0  0  0  0  0  0  0  0
   20.6027  -11.2562    3.6013 C   0  0  0  1  0  0  0  0  0  0  0  0
   20.2508  -12.2663    3.6288 H   0  0  0  1  0  0  0  0  0  0  0  0
   22.1257  -11.2158    3.4098 C   0  0  0  1  0  0  0  0  0  0  0  0
   22.3844  -11.2246    2.3716 H   0  0  0  1  0  0  0  0  0  0  0  0
   23.8491   -9.9454    4.5358 O   0  0  0  1  0  0  0  0  0  0  0  0
   24.4499   -9.6913    3.8315 H   0  0  0  1  0  0  0  0  0  0  0  0
   23.4600   -9.9819    8.3182 N   0  0  0  1  0  0  0  0  0  0  0  0
   24.0619   -9.4120    8.8410 H   0  0  0  1  0  0  0  0  0  0  0  0
   23.2405   -8.3165    6.7766 O   0  0  0  1  0  0  0  0  0  0  0  0
   22.3260  -12.0557    8.0431 C   0  0  0  1  0  0  0  0  0  0  0  0
   22.0868  -13.0237    8.3388 H   0  0  0  1  0  0  0  0  0  0  0  0
   19.9117  -10.5174    2.5028 C   0  0  0  1  0  0  0  0  0  0  0  0
   20.1015  -10.9971    1.5653 H   0  0  0  1  0  0  0  0  0  0  0  0
   20.2638   -9.5077    2.4651 H   0  0  0  1  0  0  0  0  0  0  0  0
   22.7567  -12.3155    4.0677 O   0  0  0  1  0  0  0  0  0  0  0  0
   22.1947  -12.6277    4.7807 H   0  0  0  1  0  0  0  0  0  0  0  0
   23.2085  -11.2401    8.8251 C   0  0  0  1  0  0  0  0  0  0  0  0
   18.4929  -10.5343    2.7866 O   0  0  0  1  0  0  0  0  0  0  0  0
   23.7046  -11.6330    9.8704 O   0  0  0  1  0  0  0  0  0  0  0  0
   17.4222   -9.6194    1.9942 P   0  0  0  1  0  0  0  0  0  0  0  0
   17.5764  -10.1069    0.4594 O   0  0  0  1  0  0  0  0  0  0  0  0
   16.0524   -9.9688    2.4316 O   0  0  0  0  0  0  0  0  0  0  0  0
   17.8892   -8.2248    2.1488 O   0  0  0  1  0  0  0  0  0  0  0  0
   17.8697   -9.1373   -0.6682 P   0  0  0  1  0  0  0  0  0  0  0  0
   16.6468   -8.5462   -1.3235 O   0  0  0  0  0  0  0  0  0  0  0  0
   18.8837   -8.1854   -0.1800 O   0  0  0  1  0  0  0  0  0  0  0  0
   18.6518  -10.0674   -1.6679 O   0  0  0  1  0  0  0  0  0  0  0  0
   18.0731  -11.1899   -2.2869 C   0  0  0  1  0  0  0  0  0  0  0  0
   17.0517  -11.2795   -1.9810 H   0  0  0  1  0  0  0  0  0  0  0  0
   18.8391  -12.4486   -1.8747 C   0  0  0  1  0  0  0  0  0  0  0  0
   18.7273  -12.6007   -0.8215 H   0  0  0  1  0  0  0  0  0  0  0  0
   20.2226  -12.2818   -2.1881 O   0  0  0  1  0  0  0  0  0  0  0  0
   20.6533  -13.1397   -2.2038 H   0  0  0  1  0  0  0  0  0  0  0  0
   18.2741  -13.4156   -4.1216 C   0  0  0  1  0  0  0  0  0  0  0  0
   19.2769  -13.3524   -4.4893 H   0  0  0  1  0  0  0  0  0  0  0  0
   17.5978  -14.4998   -4.7633 O   0  0  0  1  0  0  0  0  0  0  0  0
   17.8078  -14.4989   -5.7001 H   0  0  0  1  0  0  0  0  0  0  0  0
   18.3014  -13.6567   -2.6139 C   0  0  0  1  0  0  0  0  0  0  0  0
   18.9275  -14.4994   -2.4068 H   0  0  0  1  0  0  0  0  0  0  0  0
   17.5409  -12.1117   -4.4236 C   0  0  0  1  0  0  0  0  0  0  0  0
   16.5166  -12.2079   -4.1299 H   0  0  0  1  0  0  0  0  0  0  0  0
   17.6158  -11.8332   -5.8976 C   0  0  0  1  0  0  0  0  0  0  0  0
   17.3946  -12.7230   -6.4492 H   0  0  0  1  0  0  0  0  0  0  0  0
   18.5953  -11.4877   -6.1548 H   0  0  0  1  0  0  0  0  0  0  0  0
   16.6541  -10.8284   -6.1916 O   0  0  0  1  0  0  0  0  0  0  0  0
   16.6125  -10.6927   -7.1410 H   0  0  0  1  0  0  0  0  0  0  0  0
   18.1314  -11.0308   -3.7131 O   0  0  0  1  0  0  0  0  0  0  0  0
   16.9738  -13.9265   -2.1614 O   0  0  0  1  0  0  0  0  0  0  0  0
   16.5088  -14.4440   -2.8228 H   0  0  0  1  0  0  0  0  0  0  0  0
  1  2  1  0  0  0  0
  1  3  1  0  0  0  0
  1  4  1  0  0  0  0
  1  5  1  0  0  0  0
  3  7  1  0  0  0  0
  3  8  1  0  0  0  0
  4 10  1  0  0  0  0
  5  6  1  0  0  0  0
  5 12  1  0  0  0  0
  5 14  1  0  0  0  0
  7 16  1  0  0  0  0
  7 18  2  0  0  0  0
  8  9  1  0  0  0  0
  8 19  2  0  0  0  0
 10 11  1  0  0  0  0
 10 12  1  0  0  0  0
 10 21  1  0  0  0  0
 12 13  1  0  0  0  0
 12 24  1  0  0  0  0
 14 15  1  0  0  0  0
 16 17  1  0  0  0  0
 16 26  1  0  0  0  0
 19 20  1  0  0  0  0
 19 26  1  0  0  0  0
 21 22  1  0  0  0  0
 21 23  1  0  0  0  0
 21 27  1  0  0  0  0
 24 25  1  0  0  0  0
 26 28  2  0  0  0  0
 27 29  1  0  0  0  0
 29 30  1  0  0  0  0
 29 31  1  0  0  0  0
 29 32  2  0  0  0  0
 30 33  1  0  0  0  0
 33 34  1  0  0  0  0
 33 35  2  0  0  0  0
 33 36  1  0  0  0  0
 36 37  1  0  0  0  0
 37 38  1  0  0  0  0
 37 39  1  0  0  0  0
 37 56  1  0  0  0  0
 39 40  1  0  0  0  0
 39 41  1  0  0  0  0
 39 47  1  0  0  0  0
 41 42  1  0  0  0  0
 43 44  1  0  0  0  0
 43 45  1  0  0  0  0
 43 47  1  0  0  0  0
 43 49  1  0  0  0  0
 45 46  1  0  0  0  0
 47 48  1  0  0  0  0
 47 57  1  0  0  0  0
 49 50  1  0  0  0  0
 49 51  1  0  0  0  0
 49 56  1  0  0  0  0
 51 52  1  0  0  0  0
 51 53  1  0  0  0  0
 51 54  1  0  0  0  0
 54 55  1  0  0  0  0
 57 58  1  0  0  0  0
M  BCL ATM C_TeTeTeTe H_S N_TrTrTrPi2 O_Te2Te2TeTe C_TeTeTeTe H_S C_TrTrTrPi C_TrTrTrPi H_S C_TeTeTeTe H_S C_TeTeTeTe H_S O_Te2Te2TeTe H_S N_TrTrTrPi2 H_S O_Tr2Tr2TrPi C_TrTrTrPi H_S C_TeTeTeTe H_S H_S O_Te2Te2TeTe H_S C_TrTrTrPi O_Tr2TrTrPi2 O_Tr2Tr2TrPi P_TeTeTeTePi O_Tr2TrTrPi2 O_Te2Te2TeTe O_Tr2Tr2TrPi P_TeTeTeTePi O_Te2Te2TeTe O_Tr2Tr2TrPi O_Tr2TrTrPi2 C_TeTeTeTe H_S C_TeTeTeTe H_S O_Te2Te2TeTe H_S C_TeTeTeTe H_S O_Te2Te2TeTe H_S C_TeTeTeTe H_S C_TeTeTeTe H_S C_TeTeTeTe H_S H_S O_Te2Te2TeTe H_S O_Te2Te2TeTe O_Te2Te2TeTe H_S
M  BCL BND NonConjugatedSingleBond NonConjugatedSingleBond NonConjugatedSingleBondInRing NonConjugatedSingleBondInRing ConjugatedSingleBondInRing ConjugatedSingleBondInRing NonConjugatedSingleBondInRing NonConjugatedSingleBond NonConjugatedSingleBondInRing NonConjugatedSingleBond ConjugatedSingleBondInRing ConjugatedDoubleBond NonConjugatedSingleBond ConjugatedDoubleBondInRing NonConjugatedSingleBond NonConjugatedSingleBondInRing NonConjugatedSingleBond NonConjugatedSingleBond NonConjugatedSingleBond NonConjugatedSingleBond NonConjugatedSingleBond ConjugatedSingleBondInRing NonConjugatedSingleBond ConjugatedSingleBondInRing NonConjugatedSingleBond NonConjugatedSingleBond NonConjugatedSingleBond NonConjugatedSingleBond ConjugatedDoubleBond ConjugatedSingleBond ConjugatedSingleBond ConjugatedSingleBond ConjugatedDoubleBond ConjugatedSingleBond ConjugatedSingleBond ConjugatedDoubleBond ConjugatedSingleBond NonConjugatedSingleBond NonConjugatedSingleBond NonConjugatedSingleBondInRing NonConjugatedSingleBondInRing NonConjugatedSingleBond NonConjugatedSingleBond NonConjugatedSingleBondInRing NonConjugatedSingleBond NonConjugatedSingleBond NonConjugatedSingleBond NonConjugatedSingleBondInRing NonConjugatedSingleBondInRing NonConjugatedSingleBond NonConjugatedSingleBond NonConjugatedSingleBond NonConjugatedSingleBond NonConjugatedSingleBond NonConjugatedSingleBondInRing NonConjugatedSingleBond NonConjugatedSingleBond NonConjugatedSingleBond NonConjugatedSingleBond NonConjugatedSingleBond
M  BCL CHI   1   S   5   S  10   S  12   R  29   S  33   R  37   S  39   R  43   R  47   R  49   S
M  BCL DBI - Z - - -
M  END
> <ConfClashScore>
0 

> <ConfOneFourInteractionScore>
-0.964596 

> <ConfScore>
-0.181693 

> <ConfScorePBest>
0.0148925 

> <ConfTolerance>
1.53931 

$$$$
ChEBI.****
  PyMOL2.5          3D                             0

 58 60  0  0  0  0  0  0  0  0999 V2000
   16.1574  -10.7045    5.0191 C   0  0  0  1  0  0  0  0  0  0  0  0
   16.0568  -11.5980    4.4389 H   0  0  0  1  0  0  0  0  0  0  0  0
   15.3628  -10.8238    6.2406 N   0  0  0  1  0  0  0  0  0  0  0  0
   17.5458  -10.4608    5.3386 O   0  0  0  1  0  0  0  0  0  0  0  0
   15.7150   -9.4836    4.2070 C   0  0  0  1  0  0  0  0  0  0  0  0
   15.7759   -9.6786    3.1567 H   0  0  0  1  0  0  0  0  0  0  0  0
   14.4011  -11.7933    6.3271 C   0  0  0  1  0  0  0  0  0  0  0  0
   15.5938   -9.9575    7.2883 C   0  0  0  1  0  0  0  0  0  0  0  0
   16.3405   -9.2422    7.1766 H   0  0  0  1  0  0  0  0  0  0  0  0
   17.9904   -9.2287    4.8394 C   0  0  0  1  0  0  0  0  0  0  0  0
   18.6261   -8.7398    5.5477 H   0  0  0  1  0  0  0  0  0  0  0  0
   16.7023   -8.4228    4.6176 C   0  0  0  1  0  0  0  0  0  0  0  0
   16.8309   -7.6952    3.8437 H   0  0  0  1  0  0  0  0  0  0  0  0
   14.3811   -9.1000    4.5442 O   0  0  0  1  0  0  0  0  0  0  0  0
   14.3797   -8.1963    4.8680 H   0  0  0  1  0  0  0  0  0  0  0  0
   13.7163  -11.8231    7.5224 N   0  0  0  1  0  0  0  0  0  0  0  0
   13.0268  -12.5134    7.6144 H   0  0  0  1  0  0  0  0  0  0  0  0
   14.1680  -12.5711    5.4165 O   0  0  0  1  0  0  0  0  0  0  0  0
   14.9104   -9.9835    8.4456 C   0  0  0  1  0  0  0  0  0  0  0  0
   15.1104   -9.2986    9.2023 H   0  0  0  1  0  0  0  0  0  0  0  0
   18.7266   -9.4137    3.5533 C   0  0  0  1  0  0  0  0  0  0  0  0
   18.1386   -9.9992    2.8778 H   0  0  0  1  0  0  0  0  0  0  0  0
   19.6589   -9.9065    3.7348 H   0  0  0  1  0  0  0  0  0  0  0  0
   16.2886   -7.7721    5.8200 O   0  0  0  1  0  0  0  0  0  0  0  0
   16.2920   -6.8213    5.6872 H   0  0  0  1  0  0  0  0  0  0  0  0
   13.8971  -10.9854    8.6035 C   0  0  0  1  0  0  0  0  0  0  0  0
   18.9639   -8.1020    2.9903 O   0  0  0  1  0  0  0  0  0  0  0  0
   13.2389  -11.0901    9.6253 O   0  0  0  1  0  0  0  0  0  0  0  0
   19.4407   -7.9925    1.4125 P   0  0  0  1  0  0  0  0  0  0  0  0
   18.2186   -8.5185    0.4924 O   0  0  0  1  0  0  0  0  0  0  0  0
   19.6594   -6.4948    1.2673 O   0  0  0  0  0  0  0  0  0  0  0  0
   20.7077   -8.8024    1.2983 O   0  0  0  1  0  0  0  0  0  0  0  0
   17.9529  -10.0991    0.0928 P   0  0  0  1  0  0  0  0  0  0  0  0
   18.7641  -10.8195    1.1582 O   0  0  0  0  0  0  0  0  0  0  0  0
   16.4659  -10.3197    0.2131 O   0  0  0  1  0  0  0  0  0  0  0  0
   18.5362  -10.3319   -1.3500 O   0  0  0  1  0  0  0  0  0  0  0  0
   18.0220  -11.3571   -2.1860 C   0  0  0  1  0  0  0  0  0  0  0  0
   16.9810  -11.4961   -1.9816 H   0  0  0  1  0  0  0  0  0  0  0  0
   18.7725  -12.6616   -1.9102 C   0  0  0  1  0  0  0  0  0  0  0  0
   18.5793  -12.9742   -0.9053 H   0  0  0  1  0  0  0  0  0  0  0  0
   20.1738  -12.4440   -2.0807 O   0  0  0  1  0  0  0  0  0  0  0  0
   20.4019  -12.5369   -3.0086 H   0  0  0  1  0  0  0  0  0  0  0  0
   18.4042  -13.2736   -4.3170 C   0  0  0  1  0  0  0  0  0  0  0  0
   19.4321  -13.1512   -4.5879 H   0  0  0  1  0  0  0  0  0  0  0  0
   17.7993  -14.2474   -5.1690 O   0  0  0  1  0  0  0  0  0  0  0  0
   17.0810  -14.6802   -4.7016 H   0  0  0  1  0  0  0  0  0  0  0  0
   18.3148  -13.7436   -2.8668 C   0  0  0  1  0  0  0  0  0  0  0  0
   18.9356  -14.6059   -2.7407 H   0  0  0  1  0  0  0  0  0  0  0  0
   17.6770  -11.9412   -4.4747 C   0  0  0  1  0  0  0  0  0  0  0  0
   16.6340  -12.0849   -4.2835 H   0  0  0  1  0  0  0  0  0  0  0  0
   17.8652  -11.4385   -5.8796 C   0  0  0  1  0  0  0  0  0  0  0  0
   17.3545  -10.5037   -5.9810 H   0  0  0  1  0  0  0  0  0  0  0  0
   17.4445  -12.1507   -6.5584 H   0  0  0  1  0  0  0  0  0  0  0  0
   19.2348  -11.2481   -6.2091 O   0  0  0  1  0  0  0  0  0  0  0  0
   19.7282  -11.0306   -5.4149 H   0  0  0  1  0  0  0  0  0  0  0  0
   18.1916  -10.9804   -3.5616 O   0  0  0  1  0  0  0  0  0  0  0  0
   16.9705  -14.0814   -2.5728 O   0  0  0  1  0  0  0  0  0  0  0  0
   16.9195  -14.4542   -1.6896 H   0  0  0  1  0  0  0  0  0  0  0  0
  1  2  1  0  0  0  0
  1  3  1  0  0  0  0
  1  4  1  0  0  0  0
  1  5  1  0  0  0  0
  3  7  1  0  0  0  0
  3  8  1  0  0  0  0
  4 10  1  0  0  0  0
  5  6  1  0  0  0  0
  5 12  1  0  0  0  0
  5 14  1  0  0  0  0
  7 16  1  0  0  0  0
  7 18  2  0  0  0  0
  8  9  1  0  0  0  0
  8 19  2  0  0  0  0
 10 11  1  0  0  0  0
 10 12  1  0  0  0  0
 10 21  1  0  0  0  0
 12 13  1  0  0  0  0
 12 24  1  0  0  0  0
 14 15  1  0  0  0  0
 16 17  1  0  0  0  0
 16 26  1  0  0  0  0
 19 20  1  0  0  0  0
 19 26  1  0  0  0  0
 21 22  1  0  0  0  0
 21 23  1  0  0  0  0
 21 27  1  0  0  0  0
 24 25  1  0  0  0  0
 26 28  2  0  0  0  0
 27 29  1  0  0  0  0
 29 30  1  0  0  0  0
 29 31  1  0  0  0  0
 29 32  2  0  0  0  0
 30 33  1  0  0  0  0
 33 34  1  0  0  0  0
 33 35  2  0  0  0  0
 33 36  1  0  0  0  0
 36 37  1  0  0  0  0
 37 38  1  0  0  0  0
 37 39  1  0  0  0  0
 37 56  1  0  0  0  0
 39 40  1  0  0  0  0
 39 41  1  0  0  0  0
 39 47  1  0  0  0  0
 41 42  1  0  0  0  0
 43 44  1  0  0  0  0
 43 45  1  0  0  0  0
 43 47  1  0  0  0  0
 43 49  1  0  0  0  0
 45 46  1  0  0  0  0
 47 48  1  0  0  0  0
 47 57  1  0  0  0  0
 49 50  1  0  0  0  0
 49 51  1  0  0  0  0
 49 56  1  0  0  0  0
 51 52  1  0  0  0  0
 51 53  1  0  0  0  0
 51 54  1  0  0  0  0
 54 55  1  0  0  0  0
 57 58  1  0  0  0  0
M  BCL ATM C_TeTeTeTe H_S N_TrTrTrPi2 O_Te2Te2TeTe C_TeTeTeTe H_S C_TrTrTrPi C_TrTrTrPi H_S C_TeTeTeTe H_S C_TeTeTeTe H_S O_Te2Te2TeTe H_S N_TrTrTrPi2 H_S O_Tr2Tr2TrPi C_TrTrTrPi H_S C_TeTeTeTe H_S H_S O_Te2Te2TeTe H_S C_TrTrTrPi O_Tr2TrTrPi2 O_Tr2Tr2TrPi P_TeTeTeTePi O_Tr2TrTrPi2 O_Te2Te2TeTe O_Tr2Tr2TrPi P_TeTeTeTePi O_Te2Te2TeTe O_Tr2Tr2TrPi O_Tr2TrTrPi2 C_TeTeTeTe H_S C_TeTeTeTe H_S O_Te2Te2TeTe H_S C_TeTeTeTe H_S O_Te2Te2TeTe H_S C_TeTeTeTe H_S C_TeTeTeTe H_S C_TeTeTeTe H_S H_S O_Te2Te2TeTe H_S O_Te2Te2TeTe O_Te2Te2TeTe H_S
M  BCL BND NonConjugatedSingleBond NonConjugatedSingleBond NonConjugatedSingleBondInRing NonConjugatedSingleBondInRing ConjugatedSingleBondInRing ConjugatedSingleBondInRing NonConjugatedSingleBondInRing NonConjugatedSingleBond NonConjugatedSingleBondInRing NonConjugatedSingleBond ConjugatedSingleBondInRing ConjugatedDoubleBond NonConjugatedSingleBond ConjugatedDoubleBondInRing NonConjugatedSingleBond NonConjugatedSingleBondInRing NonConjugatedSingleBond NonConjugatedSingleBond NonConjugatedSingleBond NonConjugatedSingleBond NonConjugatedSingleBond ConjugatedSingleBondInRing NonConjugatedSingleBond ConjugatedSingleBondInRing NonConjugatedSingleBond NonConjugatedSingleBond NonConjugatedSingleBond NonConjugatedSingleBond ConjugatedDoubleBond ConjugatedSingleBond ConjugatedSingleBond ConjugatedSingleBond ConjugatedDoubleBond ConjugatedSingleBond ConjugatedSingleBond ConjugatedDoubleBond ConjugatedSingleBond NonConjugatedSingleBond NonConjugatedSingleBond NonConjugatedSingleBondInRing NonConjugatedSingleBondInRing NonConjugatedSingleBond NonConjugatedSingleBond NonConjugatedSingleBondInRing NonConjugatedSingleBond NonConjugatedSingleBond NonConjugatedSingleBond NonConjugatedSingleBondInRing NonConjugatedSingleBondInRing NonConjugatedSingleBond NonConjugatedSingleBond NonConjugatedSingleBond NonConjugatedSingleBond NonConjugatedSingleBond NonConjugatedSingleBondInRing NonConjugatedSingleBond NonConjugatedSingleBond NonConjugatedSingleBond NonConjugatedSingleBond NonConjugatedSingleBond
M  BCL CHI   1   S   5   S  10   S  12   R  29   S  33   R  37   S  39   R  43   R  47   R  49   S
M  BCL DBI - Z - - -
M  END
> <ConfClashScore>
0 

> <ConfOneFourInteractionScore>
-0.984177 

> <ConfScore>
-0.169168 

> <ConfScorePBest>
0.0147895 

> <ConfTolerance>
1.54662 

$$$$
ChEBI.****
  PyMOL2.5          3D                             0

 58 60  0  0  0  0  0  0  0  0999 V2000
   22.7202   -6.0713   -3.9446 C   0  0  0  1  0  0  0  0  0  0  0  0
   22.0375   -5.9184   -4.7542 H   0  0  0  1  0  0  0  0  0  0  0  0
   23.6973   -4.9840   -3.9181 N   0  0  0  1  0  0  0  0  0  0  0  0
   22.0054   -6.1552   -2.6742 O   0  0  0  1  0  0  0  0  0  0  0  0
   23.4116   -7.4093   -4.0730 C   0  0  0  1  0  0  0  0  0  0  0  0
   23.5493   -7.6713   -5.1013 H   0  0  0  1  0  0  0  0  0  0  0  0
   23.7257   -4.0783   -4.9435 C   0  0  0  1  0  0  0  0  0  0  0  0
   24.5764   -4.8865   -2.8602 C   0  0  0  1  0  0  0  0  0  0  0  0
   24.5104   -5.5952   -2.1019 H   0  0  0  1  0  0  0  0  0  0  0  0
   21.7622   -7.4907   -2.3326 C   0  0  0  1  0  0  0  0  0  0  0  0
   22.1679   -7.6976   -1.3644 H   0  0  0  1  0  0  0  0  0  0  0  0
   22.4432   -8.3805   -3.3846 C   0  0  0  1  0  0  0  0  0  0  0  0
   21.7296   -8.7708   -4.0798 H   0  0  0  1  0  0  0  0  0  0  0  0
   24.6771   -7.3954   -3.4109 O   0  0  0  1  0  0  0  0  0  0  0  0
   25.3569   -7.7083   -4.0123 H   0  0  0  1  0  0  0  0  0  0  0  0
   24.6788   -3.0913   -4.8165 N   0  0  0  1  0  0  0  0  0  0  0  0
   24.7158   -2.4242   -5.5335 H   0  0  0  1  0  0  0  0  0  0  0  0
   22.9662   -4.1400   -5.8962 O   0  0  0  1  0  0  0  0  0  0  0  0
   25.5137   -3.9291   -2.7517 C   0  0  0  1  0  0  0  0  0  0  0  0
   26.1653   -3.9055   -1.9415 H   0  0  0  1  0  0  0  0  0  0  0  0
   20.3093   -7.7487   -2.3233 C   0  0  0  1  0  0  0  0  0  0  0  0
   20.1304   -8.7439   -1.9733 H   0  0  0  1  0  0  0  0  0  0  0  0
   19.9267   -7.6454   -3.3172 H   0  0  0  1  0  0  0  0  0  0  0  0
   23.1477   -9.4592   -2.7681 O   0  0  0  1  0  0  0  0  0  0  0  0
   23.8615   -9.7457   -3.3426 H   0  0  0  1  0  0  0  0  0  0  0  0
   25.5864   -2.9414   -3.7885 C   0  0  0  1  0  0  0  0  0  0  0  0
   19.6351   -6.8094   -1.4533 O   0  0  0  1  0  0  0  0  0  0  0  0
   26.3978   -2.0282   -3.7632 O   0  0  0  1  0  0  0  0  0  0  0  0
   18.2070   -7.0512   -1.0063 P   0  0  0  1  0  0  0  0  0  0  0  0
   18.4155   -8.2385    0.0558 O   0  0  0  1  0  0  0  0  0  0  0  0
   17.5391   -5.8617   -0.3635 O   0  0  0  0  0  0  0  0  0  0  0  0
   17.4964   -7.6801   -2.1253 O   0  0  0  1  0  0  0  0  0  0  0  0
   18.4521   -9.8076   -0.0948 P   0  0  0  1  0  0  0  0  0  0  0  0
   19.6462  -10.3644    0.6767 O   0  0  0  0  0  0  0  0  0  0  0  0
   17.1349  -10.3268    0.3729 O   0  0  0  1  0  0  0  0  0  0  0  0
   18.7573  -10.1526   -1.5979 O   0  0  0  1  0  0  0  0  0  0  0  0
   18.1160  -11.2057   -2.2973 C   0  0  0  1  0  0  0  0  0  0  0  0
   17.0916  -11.2642   -1.9937 H   0  0  0  1  0  0  0  0  0  0  0  0
   18.8166  -12.5280   -1.9783 C   0  0  0  1  0  0  0  0  0  0  0  0
   18.6981  -12.7481   -0.9379 H   0  0  0  1  0  0  0  0  0  0  0  0
   20.2066  -12.4107   -2.2855 O   0  0  0  1  0  0  0  0  0  0  0  0
   20.7240  -12.8317   -1.5952 H   0  0  0  1  0  0  0  0  0  0  0  0
   18.2003  -13.3037   -4.2851 C   0  0  0  1  0  0  0  0  0  0  0  0
   19.2047  -13.2663   -4.6521 H   0  0  0  1  0  0  0  0  0  0  0  0
   17.4693  -14.3027   -4.9976 O   0  0  0  1  0  0  0  0  0  0  0  0
   17.9948  -15.1041   -5.0556 H   0  0  0  1  0  0  0  0  0  0  0  0
   18.2167  -13.6518   -2.7982 C   0  0  0  1  0  0  0  0  0  0  0  0
   18.7988  -14.5379   -2.6539 H   0  0  0  1  0  0  0  0  0  0  0  0
   17.5349  -11.9459   -4.4911 C   0  0  0  1  0  0  0  0  0  0  0  0
   16.5073  -12.0100   -4.2001 H   0  0  0  1  0  0  0  0  0  0  0  0
   17.6226  -11.5677   -5.9441 C   0  0  0  1  0  0  0  0  0  0  0  0
   17.2741  -12.3894   -6.5344 H   0  0  0  1  0  0  0  0  0  0  0  0
   18.6450  -11.3635   -6.1846 H   0  0  0  1  0  0  0  0  0  0  0  0
   16.8431  -10.4203   -6.2544 O   0  0  0  1  0  0  0  0  0  0  0  0
   16.7766  -10.3262   -7.2074 H   0  0  0  1  0  0  0  0  0  0  0  0
   18.1810  -10.9496   -3.7090 O   0  0  0  1  0  0  0  0  0  0  0  0
   16.8774  -13.8844   -2.3597 O   0  0  0  1  0  0  0  0  0  0  0  0
   16.6734  -14.8194   -2.4349 H   0  0  0  1  0  0  0  0  0  0  0  0
  1  2  1  0  0  0  0
  1  3  1  0  0  0  0
  1  4  1  0  0  0  0
  1  5  1  0  0  0  0
  3  7  1  0  0  0  0
  3  8  1  0  0  0  0
  4 10  1  0  0  0  0
  5  6  1  0  0  0  0
  5 12  1  0  0  0  0
  5 14  1  0  0  0  0
  7 16  1  0  0  0  0
  7 18  2  0  0  0  0
  8  9  1  0  0  0  0
  8 19  2  0  0  0  0
 10 11  1  0  0  0  0
 10 12  1  0  0  0  0
 10 21  1  0  0  0  0
 12 13  1  0  0  0  0
 12 24  1  0  0  0  0
 14 15  1  0  0  0  0
 16 17  1  0  0  0  0
 16 26  1  0  0  0  0
 19 20  1  0  0  0  0
 19 26  1  0  0  0  0
 21 22  1  0  0  0  0
 21 23  1  0  0  0  0
 21 27  1  0  0  0  0
 24 25  1  0  0  0  0
 26 28  2  0  0  0  0
 27 29  1  0  0  0  0
 29 30  1  0  0  0  0
 29 31  1  0  0  0  0
 29 32  2  0  0  0  0
 30 33  1  0  0  0  0
 33 34  1  0  0  0  0
 33 35  2  0  0  0  0
 33 36  1  0  0  0  0
 36 37  1  0  0  0  0
 37 38  1  0  0  0  0
 37 39  1  0  0  0  0
 37 56  1  0  0  0  0
 39 40  1  0  0  0  0
 39 41  1  0  0  0  0
 39 47  1  0  0  0  0
 41 42  1  0  0  0  0
 43 44  1  0  0  0  0
 43 45  1  0  0  0  0
 43 47  1  0  0  0  0
 43 49  1  0  0  0  0
 45 46  1  0  0  0  0
 47 48  1  0  0  0  0
 47 57  1  0  0  0  0
 49 50  1  0  0  0  0
 49 51  1  0  0  0  0
 49 56  1  0  0  0  0
 51 52  1  0  0  0  0
 51 53  1  0  0  0  0
 51 54  1  0  0  0  0
 54 55  1  0  0  0  0
 57 58  1  0  0  0  0
M  BCL ATM C_TeTeTeTe H_S N_TrTrTrPi2 O_Te2Te2TeTe C_TeTeTeTe H_S C_TrTrTrPi C_TrTrTrPi H_S C_TeTeTeTe H_S C_TeTeTeTe H_S O_Te2Te2TeTe H_S N_TrTrTrPi2 H_S O_Tr2Tr2TrPi C_TrTrTrPi H_S C_TeTeTeTe H_S H_S O_Te2Te2TeTe H_S C_TrTrTrPi O_Tr2TrTrPi2 O_Tr2Tr2TrPi P_TeTeTeTePi O_Tr2TrTrPi2 O_Te2Te2TeTe O_Tr2Tr2TrPi P_TeTeTeTePi O_Te2Te2TeTe O_Tr2Tr2TrPi O_Tr2TrTrPi2 C_TeTeTeTe H_S C_TeTeTeTe H_S O_Te2Te2TeTe H_S C_TeTeTeTe H_S O_Te2Te2TeTe H_S C_TeTeTeTe H_S C_TeTeTeTe H_S C_TeTeTeTe H_S H_S O_Te2Te2TeTe H_S O_Te2Te2TeTe O_Te2Te2TeTe H_S
M  BCL BND NonConjugatedSingleBond NonConjugatedSingleBond NonConjugatedSingleBondInRing NonConjugatedSingleBondInRing ConjugatedSingleBondInRing ConjugatedSingleBondInRing NonConjugatedSingleBondInRing NonConjugatedSingleBond NonConjugatedSingleBondInRing NonConjugatedSingleBond ConjugatedSingleBondInRing ConjugatedDoubleBond NonConjugatedSingleBond ConjugatedDoubleBondInRing NonConjugatedSingleBond NonConjugatedSingleBondInRing NonConjugatedSingleBond NonConjugatedSingleBond NonConjugatedSingleBond NonConjugatedSingleBond NonConjugatedSingleBond ConjugatedSingleBondInRing NonConjugatedSingleBond ConjugatedSingleBondInRing NonConjugatedSingleBond NonConjugatedSingleBond NonConjugatedSingleBond NonConjugatedSingleBond ConjugatedDoubleBond ConjugatedSingleBond ConjugatedSingleBond ConjugatedSingleBond ConjugatedDoubleBond ConjugatedSingleBond ConjugatedSingleBond ConjugatedDoubleBond ConjugatedSingleBond NonConjugatedSingleBond NonConjugatedSingleBond NonConjugatedSingleBondInRing NonConjugatedSingleBondInRing NonConjugatedSingleBond NonConjugatedSingleBond NonConjugatedSingleBondInRing NonConjugatedSingleBond NonConjugatedSingleBond NonConjugatedSingleBond NonConjugatedSingleBondInRing NonConjugatedSingleBondInRing NonConjugatedSingleBond NonConjugatedSingleBond NonConjugatedSingleBond NonConjugatedSingleBond NonConjugatedSingleBond NonConjugatedSingleBondInRing NonConjugatedSingleBond NonConjugatedSingleBond NonConjugatedSingleBond NonConjugatedSingleBond NonConjugatedSingleBond
M  BCL CHI   1   S   5   S  10   S  12   R  29   S  33   R  37   S  39   R  43   R  47   R  49   S
M  BCL DBI - Z - - -
M  END
> <ConfClashScore>
0 

> <ConfOneFourInteractionScore>
-0.98376 

> <ConfScore>
-0.165742 

> <ConfScorePBest>
0.0146865 

> <ConfTolerance>
1.57789 

$$$$
ChEBI.****
  PyMOL2.5          3D                             0

 58 60  0  0  0  0  0  0  0  0999 V2000
   12.5335  -10.6057    2.9069 C   0  0  0  1  0  0  0  0  0  0  0  0
   12.4237  -10.8798    1.8784 H   0  0  0  1  0  0  0  0  0  0  0  0
   11.2351  -10.7003    3.5796 N   0  0  0  1  0  0  0  0  0  0  0  0
   13.4523  -11.4480    3.5274 O   0  0  0  1  0  0  0  0  0  0  0  0
   13.0765   -9.1673    3.0124 C   0  0  0  1  0  0  0  0  0  0  0  0
   12.7862   -8.5799    2.1664 H   0  0  0  1  0  0  0  0  0  0  0  0
   10.0843  -10.5251    2.8386 C   0  0  0  1  0  0  0  0  0  0  0  0
   11.2021  -10.9583    4.9155 C   0  0  0  1  0  0  0  0  0  0  0  0
   12.1009  -11.0869    5.4226 H   0  0  0  1  0  0  0  0  0  0  0  0
   14.7277  -10.7771    3.6897 C   0  0  0  1  0  0  0  0  0  0  0  0
   14.9576  -10.6714    4.7293 H   0  0  0  1  0  0  0  0  0  0  0  0
   14.5933   -9.3959    3.0370 C   0  0  0  1  0  0  0  0  0  0  0  0
   14.9971   -9.3988    2.0461 H   0  0  0  1  0  0  0  0  0  0  0  0
   12.6291   -8.5313    4.2105 O   0  0  0  1  0  0  0  0  0  0  0  0
   12.6093   -9.1719    4.9252 H   0  0  0  1  0  0  0  0  0  0  0  0
    8.9096  -10.6110    3.5745 N   0  0  0  1  0  0  0  0  0  0  0  0
    8.0674  -10.4770    3.0918 H   0  0  0  1  0  0  0  0  0  0  0  0
   10.0976  -10.3124    1.6373 O   0  0  0  1  0  0  0  0  0  0  0  0
   10.0473  -11.0534    5.6065 C   0  0  0  1  0  0  0  0  0  0  0  0
   10.0480  -11.2593    6.6259 H   0  0  0  1  0  0  0  0  0  0  0  0
   15.8152  -11.5646    3.0127 C   0  0  0  1  0  0  0  0  0  0  0  0
   15.6106  -11.6608    1.9668 H   0  0  0  1  0  0  0  0  0  0  0  0
   15.8999  -12.5371    3.4509 H   0  0  0  1  0  0  0  0  0  0  0  0
   15.2497   -8.3949    3.8163 O   0  0  0  1  0  0  0  0  0  0  0  0
   16.1788   -8.3607    3.5772 H   0  0  0  1  0  0  0  0  0  0  0  0
    8.8293  -10.8635    4.8981 C   0  0  0  1  0  0  0  0  0  0  0  0
   17.0314  -10.8091    3.2217 O   0  0  0  1  0  0  0  0  0  0  0  0
    7.7511  -10.9264    5.4656 O   0  0  0  1  0  0  0  0  0  0  0  0
   18.4468  -11.2040    2.5425 P   0  0  0  1  0  0  0  0  0  0  0  0
   18.1932  -11.0599    0.9498 O   0  0  0  1  0  0  0  0  0  0  0  0
   19.5050  -10.1915    2.8499 O   0  0  0  0  0  0  0  0  0  0  0  0
   18.6852  -12.6078    2.9459 O   0  0  0  1  0  0  0  0  0  0  0  0
   19.3050  -10.5220   -0.0304 P   0  0  0  1  0  0  0  0  0  0  0  0
   19.7301   -9.1211    0.4030 O   0  0  0  0  0  0  0  0  0  0  0  0
   20.4146  -11.5181   -0.0285 O   0  0  0  1  0  0  0  0  0  0  0  0
   18.6579  -10.3176   -1.4455 O   0  0  0  1  0  0  0  0  0  0  0  0
   18.1057  -11.3663   -2.1950 C   0  0  0  1  0  0  0  0  0  0  0  0
   17.0720  -11.4796   -1.9430 H   0  0  0  1  0  0  0  0  0  0  0  0
   18.8510  -12.6644   -1.8780 C   0  0  0  1  0  0  0  0  0  0  0  0
   18.6940  -12.9198   -0.8509 H   0  0  0  1  0  0  0  0  0  0  0  0
   20.2470  -12.4758   -2.1144 O   0  0  0  1  0  0  0  0  0  0  0  0
   20.4168  -11.5516   -2.3108 H   0  0  0  1  0  0  0  0  0  0  0  0
   18.3808  -13.3997   -4.2320 C   0  0  0  1  0  0  0  0  0  0  0  0
   19.3985  -13.3065   -4.5488 H   0  0  0  1  0  0  0  0  0  0  0  0
   17.7358  -14.4024   -5.0003 O   0  0  0  1  0  0  0  0  0  0  0  0
   16.7993  -14.2019   -5.0674 H   0  0  0  1  0  0  0  0  0  0  0  0
   18.3432  -13.7898   -2.7560 C   0  0  0  1  0  0  0  0  0  0  0  0
   18.9582  -14.6527   -2.6075 H   0  0  0  1  0  0  0  0  0  0  0  0
   17.6637  -12.0678   -4.4335 C   0  0  0  1  0  0  0  0  0  0  0  0
   16.6275  -12.1865   -4.1944 H   0  0  0  1  0  0  0  0  0  0  0  0
   17.8020  -11.6446   -5.8679 C   0  0  0  1  0  0  0  0  0  0  0  0
   17.3884  -12.3931   -6.5110 H   0  0  0  1  0  0  0  0  0  0  0  0
   18.8344  -11.4984   -6.1076 H   0  0  0  1  0  0  0  0  0  0  0  0
   17.0902  -10.4240   -6.0234 O   0  0  0  1  0  0  0  0  0  0  0  0
   17.3870   -9.7936   -5.3630 H   0  0  0  1  0  0  0  0  0  0  0  0
   18.2253  -11.0666   -3.5944 O   0  0  0  1  0  0  0  0  0  0  0  0
   16.9969  -14.0950   -2.3893 O   0  0  0  1  0  0  0  0  0  0  0  0
   16.7162  -14.8958   -2.8382 H   0  0  0  1  0  0  0  0  0  0  0  0
  1  2  1  0  0  0  0
  1  3  1  0  0  0  0
  1  4  1  0  0  0  0
  1  5  1  0  0  0  0
  3  7  1  0  0  0  0
  3  8  1  0  0  0  0
  4 10  1  0  0  0  0
  5  6  1  0  0  0  0
  5 12  1  0  0  0  0
  5 14  1  0  0  0  0
  7 16  1  0  0  0  0
  7 18  2  0  0  0  0
  8  9  1  0  0  0  0
  8 19  2  0  0  0  0
 10 11  1  0  0  0  0
 10 12  1  0  0  0  0
 10 21  1  0  0  0  0
 12 13  1  0  0  0  0
 12 24  1  0  0  0  0
 14 15  1  0  0  0  0
 16 17  1  0  0  0  0
 16 26  1  0  0  0  0
 19 20  1  0  0  0  0
 19 26  1  0  0  0  0
 21 22  1  0  0  0  0
 21 23  1  0  0  0  0
 21 27  1  0  0  0  0
 24 25  1  0  0  0  0
 26 28  2  0  0  0  0
 27 29  1  0  0  0  0
 29 30  1  0  0  0  0
 29 31  1  0  0  0  0
 29 32  2  0  0  0  0
 30 33  1  0  0  0  0
 33 34  1  0  0  0  0
 33 35  2  0  0  0  0
 33 36  1  0  0  0  0
 36 37  1  0  0  0  0
 37 38  1  0  0  0  0
 37 39  1  0  0  0  0
 37 56  1  0  0  0  0
 39 40  1  0  0  0  0
 39 41  1  0  0  0  0
 39 47  1  0  0  0  0
 41 42  1  0  0  0  0
 43 44  1  0  0  0  0
 43 45  1  0  0  0  0
 43 47  1  0  0  0  0
 43 49  1  0  0  0  0
 45 46  1  0  0  0  0
 47 48  1  0  0  0  0
 47 57  1  0  0  0  0
 49 50  1  0  0  0  0
 49 51  1  0  0  0  0
 49 56  1  0  0  0  0
 51 52  1  0  0  0  0
 51 53  1  0  0  0  0
 51 54  1  0  0  0  0
 54 55  1  0  0  0  0
 57 58  1  0  0  0  0
M  BCL ATM C_TeTeTeTe H_S N_TrTrTrPi2 O_Te2Te2TeTe C_TeTeTeTe H_S C_TrTrTrPi C_TrTrTrPi H_S C_TeTeTeTe H_S C_TeTeTeTe H_S O_Te2Te2TeTe H_S N_TrTrTrPi2 H_S O_Tr2Tr2TrPi C_TrTrTrPi H_S C_TeTeTeTe H_S H_S O_Te2Te2TeTe H_S C_TrTrTrPi O_Tr2TrTrPi2 O_Tr2Tr2TrPi P_TeTeTeTePi O_Tr2TrTrPi2 O_Te2Te2TeTe O_Tr2Tr2TrPi P_TeTeTeTePi O_Te2Te2TeTe O_Tr2Tr2TrPi O_Tr2TrTrPi2 C_TeTeTeTe H_S C_TeTeTeTe H_S O_Te2Te2TeTe H_S C_TeTeTeTe H_S O_Te2Te2TeTe H_S C_TeTeTeTe H_S C_TeTeTeTe H_S C_TeTeTeTe H_S H_S O_Te2Te2TeTe H_S O_Te2Te2TeTe O_Te2Te2TeTe H_S
M  BCL BND NonConjugatedSingleBond NonConjugatedSingleBond NonConjugatedSingleBondInRing NonConjugatedSingleBondInRing ConjugatedSingleBondInRing ConjugatedSingleBondInRing NonConjugatedSingleBondInRing NonConjugatedSingleBond NonConjugatedSingleBondInRing NonConjugatedSingleBond ConjugatedSingleBondInRing ConjugatedDoubleBond NonConjugatedSingleBond ConjugatedDoubleBondInRing NonConjugatedSingleBond NonConjugatedSingleBondInRing NonConjugatedSingleBond NonConjugatedSingleBond NonConjugatedSingleBond NonConjugatedSingleBond NonConjugatedSingleBond ConjugatedSingleBondInRing NonConjugatedSingleBond ConjugatedSingleBondInRing NonConjugatedSingleBond NonConjugatedSingleBond NonConjugatedSingleBond NonConjugatedSingleBond ConjugatedDoubleBond ConjugatedSingleBond ConjugatedSingleBond ConjugatedSingleBond ConjugatedDoubleBond ConjugatedSingleBond ConjugatedSingleBond ConjugatedDoubleBond ConjugatedSingleBond NonConjugatedSingleBond NonConjugatedSingleBond NonConjugatedSingleBondInRing NonConjugatedSingleBondInRing NonConjugatedSingleBond NonConjugatedSingleBond NonConjugatedSingleBondInRing NonConjugatedSingleBond NonConjugatedSingleBond NonConjugatedSingleBond NonConjugatedSingleBondInRing NonConjugatedSingleBondInRing NonConjugatedSingleBond NonConjugatedSingleBond NonConjugatedSingleBond NonConjugatedSingleBond NonConjugatedSingleBond NonConjugatedSingleBondInRing NonConjugatedSingleBond NonConjugatedSingleBond NonConjugatedSingleBond NonConjugatedSingleBond NonConjugatedSingleBond
M  BCL CHI   1   S   5   S  10   S  12   R  29   S  33   R  37   S  39   R  43   R  47   R  49   S
M  BCL DBI - Z - - -
M  END
> <ConfClashScore>
0 

> <ConfOneFourInteractionScore>
-0.965735 

> <ConfScore>
-0.165236 

> <ConfScorePBest>
0.0145835 

> <ConfTolerance>
1.6339 

$$$$
ChEBI.****
  PyMOL2.5          3D                             0

 58 60  0  0  0  0  0  0  0  0999 V2000
   15.7679   -7.3149   -6.3806 C   0  0  0  1  0  0  0  0  0  0  0  0
   16.7831   -7.6386   -6.4784 H   0  0  0  1  0  0  0  0  0  0  0  0
   14.9270   -8.0423   -7.3398 N   0  0  0  1  0  0  0  0  0  0  0  0
   15.3168   -7.5532   -5.0771 O   0  0  0  1  0  0  0  0  0  0  0  0
   15.6743   -5.8040   -6.6457 C   0  0  0  1  0  0  0  0  0  0  0  0
   16.5603   -5.4406   -7.1232 H   0  0  0  1  0  0  0  0  0  0  0  0
   15.5291   -8.7843   -8.3267 C   0  0  0  1  0  0  0  0  0  0  0  0
   13.5656   -7.9617   -7.2252 C   0  0  0  1  0  0  0  0  0  0  0  0
   13.1671   -7.3581   -6.4780 H   0  0  0  1  0  0  0  0  0  0  0  0
   14.8255   -6.3198   -4.4695 C   0  0  0  1  0  0  0  0  0  0  0  0
   13.7644   -6.2392   -4.5805 H   0  0  0  1  0  0  0  0  0  0  0  0
   15.5287   -5.2214   -5.2335 C   0  0  0  1  0  0  0  0  0  0  0  0
   16.4867   -5.0112   -4.8059 H   0  0  0  1  0  0  0  0  0  0  0  0
   14.5366   -5.4922   -7.4510 O   0  0  0  1  0  0  0  0  0  0  0  0
   13.7345   -5.7101   -6.9705 H   0  0  0  1  0  0  0  0  0  0  0  0
   14.6700   -9.4650   -9.1801 N   0  0  0  1  0  0  0  0  0  0  0  0
   15.0688  -10.0010   -9.8970 H   0  0  0  1  0  0  0  0  0  0  0  0
   16.7418   -8.8418   -8.4462 O   0  0  0  1  0  0  0  0  0  0  0  0
   12.7171   -8.6259   -8.0327 C   0  0  0  1  0  0  0  0  0  0  0  0
   11.6879   -8.5558   -7.9008 H   0  0  0  1  0  0  0  0  0  0  0  0
   15.1805   -6.2665   -3.0199 C   0  0  0  1  0  0  0  0  0  0  0  0
   14.7383   -5.4033   -2.5680 H   0  0  0  1  0  0  0  0  0  0  0  0
   16.2436   -6.2241   -2.9064 H   0  0  0  1  0  0  0  0  0  0  0  0
   14.7427   -4.0288   -5.2520 O   0  0  0  1  0  0  0  0  0  0  0  0
   14.5014   -3.8181   -6.1569 H   0  0  0  1  0  0  0  0  0  0  0  0
   13.2770   -9.4378   -9.0865 C   0  0  0  1  0  0  0  0  0  0  0  0
   14.6648   -7.4696   -2.3957 O   0  0  0  1  0  0  0  0  0  0  0  0
   12.5687  -10.0687   -9.8568 O   0  0  0  1  0  0  0  0  0  0  0  0
   15.2621   -8.0757   -1.0899 P   0  0  0  1  0  0  0  0  0  0  0  0
   16.8081   -8.4247   -1.4143 O   0  0  0  1  0  0  0  0  0  0  0  0
   15.2427   -7.2095    0.1067 O   0  0  0  0  0  0  0  0  0  0  0  0
   14.4810   -9.3242   -0.8615 O   0  0  0  1  0  0  0  0  0  0  0  0
   17.6699   -9.4106   -0.4917 P   0  0  0  1  0  0  0  0  0  0  0  0
   18.5493   -8.5783    0.3920 O   0  0  0  0  0  0  0  0  0  0  0  0
   16.7315  -10.3917    0.0917 O   0  0  0  1  0  0  0  0  0  0  0  0
   18.5615  -10.1757   -1.5385 O   0  0  0  1  0  0  0  0  0  0  0  0
   18.0253  -11.2654   -2.3059 C   0  0  0  1  0  0  0  0  0  0  0  0
   16.9965  -11.4103   -2.0500 H   0  0  0  1  0  0  0  0  0  0  0  0
   18.8107  -12.5410   -1.9944 C   0  0  0  1  0  0  0  0  0  0  0  0
   18.6656  -12.8027   -0.9671 H   0  0  0  1  0  0  0  0  0  0  0  0
   20.1993  -12.3101   -2.2361 O   0  0  0  1  0  0  0  0  0  0  0  0
   20.7216  -12.7969   -1.5943 H   0  0  0  1  0  0  0  0  0  0  0  0
   18.3530  -13.2863   -4.3477 C   0  0  0  1  0  0  0  0  0  0  0  0
   19.3662  -13.1619   -4.6685 H   0  0  0  1  0  0  0  0  0  0  0  0
   17.7310  -14.3139   -5.1206 O   0  0  0  1  0  0  0  0  0  0  0  0
   16.9686  -14.6543   -4.6467 H   0  0  0  1  0  0  0  0  0  0  0  0
   18.3333  -13.6797   -2.8722 C   0  0  0  1  0  0  0  0  0  0  0  0
   18.9747  -14.5239   -2.7278 H   0  0  0  1  0  0  0  0  0  0  0  0
   17.5953  -11.9762   -4.5438 C   0  0  0  1  0  0  0  0  0  0  0  0
   16.5642  -12.1265   -4.3008 H   0  0  0  1  0  0  0  0  0  0  0  0
   17.7148  -11.5467   -5.9778 C   0  0  0  1  0  0  0  0  0  0  0  0
   17.2946  -10.5694   -6.0925 H   0  0  0  1  0  0  0  0  0  0  0  0
   17.1871  -12.2379   -6.6012 H   0  0  0  1  0  0  0  0  0  0  0  0
   19.0846  -11.5195   -6.3567 O   0  0  0  1  0  0  0  0  0  0  0  0
   19.6298  -11.7653   -5.6057 H   0  0  0  1  0  0  0  0  0  0  0  0
   18.1299  -10.9599   -3.7054 O   0  0  0  1  0  0  0  0  0  0  0  0
   16.9984  -14.0260   -2.5006 O   0  0  0  1  0  0  0  0  0  0  0  0
   16.9814  -14.9269   -2.1692 H   0  0  0  1  0  0  0  0  0  0  0  0
  1  2  1  0  0  0  0
  1  3  1  0  0  0  0
  1  4  1  0  0  0  0
  1  5  1  0  0  0  0
  3  7  1  0  0  0  0
  3  8  1  0  0  0  0
  4 10  1  0  0  0  0
  5  6  1  0  0  0  0
  5 12  1  0  0  0  0
  5 14  1  0  0  0  0
  7 16  1  0  0  0  0
  7 18  2  0  0  0  0
  8  9  1  0  0  0  0
  8 19  2  0  0  0  0
 10 11  1  0  0  0  0
 10 12  1  0  0  0  0
 10 21  1  0  0  0  0
 12 13  1  0  0  0  0
 12 24  1  0  0  0  0
 14 15  1  0  0  0  0
 16 17  1  0  0  0  0
 16 26  1  0  0  0  0
 19 20  1  0  0  0  0
 19 26  1  0  0  0  0
 21 22  1  0  0  0  0
 21 23  1  0  0  0  0
 21 27  1  0  0  0  0
 24 25  1  0  0  0  0
 26 28  2  0  0  0  0
 27 29  1  0  0  0  0
 29 30  1  0  0  0  0
 29 31  1  0  0  0  0
 29 32  2  0  0  0  0
 30 33  1  0  0  0  0
 33 34  1  0  0  0  0
 33 35  2  0  0  0  0
 33 36  1  0  0  0  0
 36 37  1  0  0  0  0
 37 38  1  0  0  0  0
 37 39  1  0  0  0  0
 37 56  1  0  0  0  0
 39 40  1  0  0  0  0
 39 41  1  0  0  0  0
 39 47  1  0  0  0  0
 41 42  1  0  0  0  0
 43 44  1  0  0  0  0
 43 45  1  0  0  0  0
 43 47  1  0  0  0  0
 43 49  1  0  0  0  0
 45 46  1  0  0  0  0
 47 48  1  0  0  0  0
 47 57  1  0  0  0  0
 49 50  1  0  0  0  0
 49 51  1  0  0  0  0
 49 56  1  0  0  0  0
 51 52  1  0  0  0  0
 51 53  1  0  0  0  0
 51 54  1  0  0  0  0
 54 55  1  0  0  0  0
 57 58  1  0  0  0  0
M  BCL ATM C_TeTeTeTe H_S N_TrTrTrPi2 O_Te2Te2TeTe C_TeTeTeTe H_S C_TrTrTrPi C_TrTrTrPi H_S C_TeTeTeTe H_S C_TeTeTeTe H_S O_Te2Te2TeTe H_S N_TrTrTrPi2 H_S O_Tr2Tr2TrPi C_TrTrTrPi H_S C_TeTeTeTe H_S H_S O_Te2Te2TeTe H_S C_TrTrTrPi O_Tr2TrTrPi2 O_Tr2Tr2TrPi P_TeTeTeTePi O_Tr2TrTrPi2 O_Te2Te2TeTe O_Tr2Tr2TrPi P_TeTeTeTePi O_Te2Te2TeTe O_Tr2Tr2TrPi O_Tr2TrTrPi2 C_TeTeTeTe H_S C_TeTeTeTe H_S O_Te2Te2TeTe H_S C_TeTeTeTe H_S O_Te2Te2TeTe H_S C_TeTeTeTe H_S C_TeTeTeTe H_S C_TeTeTeTe H_S H_S O_Te2Te2TeTe H_S O_Te2Te2TeTe O_Te2Te2TeTe H_S
M  BCL BND NonConjugatedSingleBond NonConjugatedSingleBond NonConjugatedSingleBondInRing NonConjugatedSingleBondInRing ConjugatedSingleBondInRing ConjugatedSingleBondInRing NonConjugatedSingleBondInRing NonConjugatedSingleBond NonConjugatedSingleBondInRing NonConjugatedSingleBond ConjugatedSingleBondInRing ConjugatedDoubleBond NonConjugatedSingleBond ConjugatedDoubleBondInRing NonConjugatedSingleBond NonConjugatedSingleBondInRing NonConjugatedSingleBond NonConjugatedSingleBond NonConjugatedSingleBond NonConjugatedSingleBond NonConjugatedSingleBond ConjugatedSingleBondInRing NonConjugatedSingleBond ConjugatedSingleBondInRing NonConjugatedSingleBond NonConjugatedSingleBond NonConjugatedSingleBond NonConjugatedSingleBond ConjugatedDoubleBond ConjugatedSingleBond ConjugatedSingleBond ConjugatedSingleBond ConjugatedDoubleBond ConjugatedSingleBond ConjugatedSingleBond ConjugatedDoubleBond ConjugatedSingleBond NonConjugatedSingleBond NonConjugatedSingleBond NonConjugatedSingleBondInRing NonConjugatedSingleBondInRing NonConjugatedSingleBond NonConjugatedSingleBond NonConjugatedSingleBondInRing NonConjugatedSingleBond NonConjugatedSingleBond NonConjugatedSingleBond NonConjugatedSingleBondInRing NonConjugatedSingleBondInRing NonConjugatedSingleBond NonConjugatedSingleBond NonConjugatedSingleBond NonConjugatedSingleBond NonConjugatedSingleBond NonConjugatedSingleBondInRing NonConjugatedSingleBond NonConjugatedSingleBond NonConjugatedSingleBond NonConjugatedSingleBond NonConjugatedSingleBond
M  BCL CHI   1   S   5   S  10   S  12   R  29   S  33   R  37   S  39   R  43   R  47   R  49   S
M  BCL DBI - Z - - -
M  END
> <ConfClashScore>
0 

> <ConfOneFourInteractionScore>
-0.981257 

> <ConfScore>
-0.162893 

> <ConfScorePBest>
0.0144805 

> <ConfTolerance>
1.60249 

$$$$
ChEBI.****
  PyMOL2.5          3D                             0

 58 60  0  0  0  0  0  0  0  0999 V2000
   21.7839   -8.3011   -5.9677 C   0  0  0  1  0  0  0  0  0  0  0  0
   21.0230   -8.9646   -6.3225 H   0  0  0  1  0  0  0  0  0  0  0  0
   22.0510   -7.3039   -6.9620 N   0  0  0  1  0  0  0  0  0  0  0  0
   21.3644   -7.6884   -4.7810 O   0  0  0  1  0  0  0  0  0  0  0  0
   23.0662   -9.0924   -5.6647 C   0  0  0  1  0  0  0  0  0  0  0  0
   23.0327  -10.0655   -6.1084 H   0  0  0  1  0  0  0  0  0  0  0  0
   22.9133   -6.2548   -6.7177 C   0  0  0  1  0  0  0  0  0  0  0  0
   21.4098   -7.4498   -8.1536 C   0  0  0  1  0  0  0  0  0  0  0  0
   20.7750   -8.2633   -8.2840 H   0  0  0  1  0  0  0  0  0  0  0  0
   22.3296   -7.9245   -3.7113 C   0  0  0  1  0  0  0  0  0  0  0  0
   23.0117   -7.1042   -3.6285 H   0  0  0  1  0  0  0  0  0  0  0  0
   23.0540   -9.1824   -4.1329 C   0  0  0  1  0  0  0  0  0  0  0  0
   22.5277  -10.0546   -3.8053 H   0  0  0  1  0  0  0  0  0  0  0  0
   24.2229   -8.3957   -6.1302 O   0  0  0  1  0  0  0  0  0  0  0  0
   24.9657   -9.0023   -6.1755 H   0  0  0  1  0  0  0  0  0  0  0  0
   23.0455   -5.3631   -7.7742 N   0  0  0  1  0  0  0  0  0  0  0  0
   23.6362   -4.5928   -7.6394 H   0  0  0  1  0  0  0  0  0  0  0  0
   23.5097   -6.1216   -5.6618 O   0  0  0  1  0  0  0  0  0  0  0  0
   21.5666   -6.5788   -9.1719 C   0  0  0  1  0  0  0  0  0  0  0  0
   21.0714   -6.7164  -10.0761 H   0  0  0  1  0  0  0  0  0  0  0  0
   21.6415   -8.1251   -2.4214 C   0  0  0  1  0  0  0  0  0  0  0  0
   22.3676   -8.3321   -1.6632 H   0  0  0  1  0  0  0  0  0  0  0  0
   20.9680   -8.9522   -2.5063 H   0  0  0  1  0  0  0  0  0  0  0  0
   24.3796   -9.2043   -3.6140 O   0  0  0  1  0  0  0  0  0  0  0  0
   24.9875   -8.8616   -4.2733 H   0  0  0  1  0  0  0  0  0  0  0  0
   22.4297   -5.4671   -8.9709 C   0  0  0  1  0  0  0  0  0  0  0  0
   20.8965   -6.9395   -2.0567 O   0  0  0  1  0  0  0  0  0  0  0  0
   22.6072   -4.6375   -9.8477 O   0  0  0  1  0  0  0  0  0  0  0  0
   20.2141   -6.8071   -0.6022 P   0  0  0  1  0  0  0  0  0  0  0  0
   19.3492   -8.1573   -0.5010 O   0  0  0  1  0  0  0  0  0  0  0  0
   21.1985   -6.8262    0.5339 O   0  0  0  0  0  0  0  0  0  0  0  0
   19.2921   -5.6884   -0.5535 O   0  0  0  1  0  0  0  0  0  0  0  0
   18.2810   -8.8392   -1.4903 P   0  0  0  1  0  0  0  0  0  0  0  0
   16.8717   -8.8216   -0.9669 O   0  0  0  0  0  0  0  0  0  0  0  0
   18.4065   -8.3197   -2.8388 O   0  0  0  1  0  0  0  0  0  0  0  0
   18.7462  -10.3346   -1.5112 O   0  0  0  1  0  0  0  0  0  0  0  0
   18.1309  -11.3691   -2.2444 C   0  0  0  1  0  0  0  0  0  0  0  0
   17.1012  -11.4427   -1.9629 H   0  0  0  1  0  0  0  0  0  0  0  0
   18.8355  -12.6935   -1.9435 C   0  0  0  1  0  0  0  0  0  0  0  0
   18.6982  -12.9398   -0.9114 H   0  0  0  1  0  0  0  0  0  0  0  0
   20.2304  -12.5584   -2.2199 O   0  0  0  1  0  0  0  0  0  0  0  0
   20.5492  -11.7273   -1.8605 H   0  0  0  1  0  0  0  0  0  0  0  0
   18.2714  -13.4172   -4.2804 C   0  0  0  1  0  0  0  0  0  0  0  0
   19.2826  -13.3633   -4.6261 H   0  0  0  1  0  0  0  0  0  0  0  0
   17.5627  -14.4039   -5.0316 O   0  0  0  1  0  0  0  0  0  0  0  0
   17.2546  -14.0194   -5.8555 H   0  0  0  1  0  0  0  0  0  0  0  0
   18.2610  -13.8014   -2.8024 C   0  0  0  1  0  0  0  0  0  0  0  0
   18.8471  -14.6864   -2.6680 H   0  0  0  1  0  0  0  0  0  0  0  0
   17.5995  -12.0598   -4.4667 C   0  0  0  1  0  0  0  0  0  0  0  0
   16.5668  -12.1386   -4.1981 H   0  0  0  1  0  0  0  0  0  0  0  0
   17.7129  -11.6462   -5.9058 C   0  0  0  1  0  0  0  0  0  0  0  0
   17.3756  -12.4448   -6.5330 H   0  0  0  1  0  0  0  0  0  0  0  0
   18.7343  -11.4215   -6.1319 H   0  0  0  1  0  0  0  0  0  0  0  0
   16.9133  -10.4939   -6.1372 O   0  0  0  1  0  0  0  0  0  0  0  0
   16.0998  -10.7514   -6.5772 H   0  0  0  1  0  0  0  0  0  0  0  0
   18.2219  -11.0780   -3.6478 O   0  0  0  1  0  0  0  0  0  0  0  0
   16.9145  -14.0547   -2.3965 O   0  0  0  1  0  0  0  0  0  0  0  0
   16.9048  -14.7501   -1.7346 H   0  0  0  1  0  0  0  0  0  0  0  0
  1  2  1  0  0  0  0
  1  3  1  0  0  0  0
  1  4  1  0  0  0  0
  1  5  1  0  0  0  0
  3  7  1  0  0  0  0
  3  8  1  0  0  0  0
  4 10  1  0  0  0  0
  5  6  1  0  0  0  0
  5 12  1  0  0  0  0
  5 14  1  0  0  0  0
  7 16  1  0  0  0  0
  7 18  2  0  0  0  0
  8  9  1  0  0  0  0
  8 19  2  0  0  0  0
 10 11  1  0  0  0  0
 10 12  1  0  0  0  0
 10 21  1  0  0  0  0
 12 13  1  0  0  0  0
 12 24  1  0  0  0  0
 14 15  1  0  0  0  0
 16 17  1  0  0  0  0
 16 26  1  0  0  0  0
 19 20  1  0  0  0  0
 19 26  1  0  0  0  0
 21 22  1  0  0  0  0
 21 23  1  0  0  0  0
 21 27  1  0  0  0  0
 24 25  1  0  0  0  0
 26 28  2  0  0  0  0
 27 29  1  0  0  0  0
 29 30  1  0  0  0  0
 29 31  1  0  0  0  0
 29 32  2  0  0  0  0
 30 33  1  0  0  0  0
 33 34  1  0  0  0  0
 33 35  2  0  0  0  0
 33 36  1  0  0  0  0
 36 37  1  0  0  0  0
 37 38  1  0  0  0  0
 37 39  1  0  0  0  0
 37 56  1  0  0  0  0
 39 40  1  0  0  0  0
 39 41  1  0  0  0  0
 39 47  1  0  0  0  0
 41 42  1  0  0  0  0
 43 44  1  0  0  0  0
 43 45  1  0  0  0  0
 43 47  1  0  0  0  0
 43 49  1  0  0  0  0
 45 46  1  0  0  0  0
 47 48  1  0  0  0  0
 47 57  1  0  0  0  0
 49 50  1  0  0  0  0
 49 51  1  0  0  0  0
 49 56  1  0  0  0  0
 51 52  1  0  0  0  0
 51 53  1  0  0  0  0
 51 54  1  0  0  0  0
 54 55  1  0  0  0  0
 57 58  1  0  0  0  0
M  BCL ATM C_TeTeTeTe H_S N_TrTrTrPi2 O_Te2Te2TeTe C_TeTeTeTe H_S C_TrTrTrPi C_TrTrTrPi H_S C_TeTeTeTe H_S C_TeTeTeTe H_S O_Te2Te2TeTe H_S N_TrTrTrPi2 H_S O_Tr2Tr2TrPi C_TrTrTrPi H_S C_TeTeTeTe H_S H_S O_Te2Te2TeTe H_S C_TrTrTrPi O_Tr2TrTrPi2 O_Tr2Tr2TrPi P_TeTeTeTePi O_Tr2TrTrPi2 O_Te2Te2TeTe O_Tr2Tr2TrPi P_TeTeTeTePi O_Te2Te2TeTe O_Tr2Tr2TrPi O_Tr2TrTrPi2 C_TeTeTeTe H_S C_TeTeTeTe H_S O_Te2Te2TeTe H_S C_TeTeTeTe H_S O_Te2Te2TeTe H_S C_TeTeTeTe H_S C_TeTeTeTe H_S C_TeTeTeTe H_S H_S O_Te2Te2TeTe H_S O_Te2Te2TeTe O_Te2Te2TeTe H_S
M  BCL BND NonConjugatedSingleBond NonConjugatedSingleBond NonConjugatedSingleBondInRing NonConjugatedSingleBondInRing ConjugatedSingleBondInRing ConjugatedSingleBondInRing NonConjugatedSingleBondInRing NonConjugatedSingleBond NonConjugatedSingleBondInRing NonConjugatedSingleBond ConjugatedSingleBondInRing ConjugatedDoubleBond NonConjugatedSingleBond ConjugatedDoubleBondInRing NonConjugatedSingleBond NonConjugatedSingleBondInRing NonConjugatedSingleBond NonConjugatedSingleBond NonConjugatedSingleBond NonConjugatedSingleBond NonConjugatedSingleBond ConjugatedSingleBondInRing NonConjugatedSingleBond ConjugatedSingleBondInRing NonConjugatedSingleBond NonConjugatedSingleBond NonConjugatedSingleBond NonConjugatedSingleBond ConjugatedDoubleBond ConjugatedSingleBond ConjugatedSingleBond ConjugatedSingleBond ConjugatedDoubleBond ConjugatedSingleBond ConjugatedSingleBond ConjugatedDoubleBond ConjugatedSingleBond NonConjugatedSingleBond NonConjugatedSingleBond NonConjugatedSingleBondInRing NonConjugatedSingleBondInRing NonConjugatedSingleBond NonConjugatedSingleBond NonConjugatedSingleBondInRing NonConjugatedSingleBond NonConjugatedSingleBond NonConjugatedSingleBond NonConjugatedSingleBondInRing NonConjugatedSingleBondInRing NonConjugatedSingleBond NonConjugatedSingleBond NonConjugatedSingleBond NonConjugatedSingleBond NonConjugatedSingleBond NonConjugatedSingleBondInRing NonConjugatedSingleBond NonConjugatedSingleBond NonConjugatedSingleBond NonConjugatedSingleBond NonConjugatedSingleBond
M  BCL CHI   1   S   5   S  10   S  12   R  29   S  33   R  37   S  39   R  43   R  47   R  49   S
M  BCL DBI - Z - - -
M  END
> <ConfClashScore>
0 

> <ConfOneFourInteractionScore>
-0.978243 

> <ConfScore>
-0.157213 

> <ConfScorePBest>
0.0143775 

> <ConfTolerance>
1.71204 

$$$$
ChEBI.****
  PyMOL2.5          3D                             0

 58 60  0  0  0  0  0  0  0  0999 V2000
   16.2202   -4.3076   -3.3079 C   0  0  0  1  0  0  0  0  0  0  0  0
   15.3266   -4.8143   -3.0086 H   0  0  0  1  0  0  0  0  0  0  0  0
   15.9016   -2.9260   -3.6649 N   0  0  0  1  0  0  0  0  0  0  0  0
   17.1797   -4.3479   -2.2867 O   0  0  0  1  0  0  0  0  0  0  0  0
   16.8889   -5.0331   -4.4845 C   0  0  0  1  0  0  0  0  0  0  0  0
   16.7535   -6.0920   -4.4119 H   0  0  0  1  0  0  0  0  0  0  0  0
   14.7100   -2.6513   -4.2959 C   0  0  0  1  0  0  0  0  0  0  0  0
   16.7912   -1.9376   -3.3657 C   0  0  0  1  0  0  0  0  0  0  0  0
   17.6905   -2.1954   -2.9114 H   0  0  0  1  0  0  0  0  0  0  0  0
   18.5102   -4.5756   -2.8033 C   0  0  0  1  0  0  0  0  0  0  0  0
   19.1583   -3.7653   -2.5422 H   0  0  0  1  0  0  0  0  0  0  0  0
   18.3388   -4.6587   -4.3230 C   0  0  0  1  0  0  0  0  0  0  0  0
   18.9776   -5.4086   -4.7408 H   0  0  0  1  0  0  0  0  0  0  0  0
   16.3738   -4.5711   -5.7341 O   0  0  0  1  0  0  0  0  0  0  0  0
   16.5328   -3.6280   -5.8172 H   0  0  0  1  0  0  0  0  0  0  0  0
   14.4669   -1.3170   -4.5743 N   0  0  0  1  0  0  0  0  0  0  0  0
   13.6281   -1.0949   -5.0299 H   0  0  0  1  0  0  0  0  0  0  0  0
   13.9165   -3.5294   -4.5918 O   0  0  0  1  0  0  0  0  0  0  0  0
   16.5538   -0.6557   -3.6321 C   0  0  0  1  0  0  0  0  0  0  0  0
   17.2638    0.0635   -3.3864 H   0  0  0  1  0  0  0  0  0  0  0  0
   19.0688   -5.8530   -2.2682 C   0  0  0  1  0  0  0  0  0  0  0  0
   20.0655   -5.9949   -2.6305 H   0  0  0  1  0  0  0  0  0  0  0  0
   18.4567   -6.6752   -2.5751 H   0  0  0  1  0  0  0  0  0  0  0  0
   18.6147   -3.4000   -4.9392 O   0  0  0  1  0  0  0  0  0  0  0  0
   19.3335   -2.9661   -4.4739 H   0  0  0  1  0  0  0  0  0  0  0  0
   15.3282   -0.2613   -4.2544 C   0  0  0  1  0  0  0  0  0  0  0  0
   19.0781   -5.7577   -0.8244 O   0  0  0  1  0  0  0  0  0  0  0  0
   15.0543    0.9063   -4.4885 O   0  0  0  1  0  0  0  0  0  0  0  0
   19.8875   -6.8324    0.0719 P   0  0  0  1  0  0  0  0  0  0  0  0
   19.0976   -8.2139   -0.1487 O   0  0  0  1  0  0  0  0  0  0  0  0
   21.2446   -6.8843   -0.5095 O   0  0  0  0  0  0  0  0  0  0  0  0
   19.7277   -6.5673    1.4898 O   0  0  0  1  0  0  0  0  0  0  0  0
   18.5501   -8.9301   -1.4371 P   0  0  0  1  0  0  0  0  0  0  0  0
   17.0531   -8.6068   -1.4569 O   0  0  0  0  0  0  0  0  0  0  0  0
   19.2620   -8.5127   -2.6643 O   0  0  0  1  0  0  0  0  0  0  0  0
   18.7555  -10.4781   -1.2733 O   0  0  0  1  0  0  0  0  0  0  0  0
   18.1279  -11.4372   -2.1103 C   0  0  0  1  0  0  0  0  0  0  0  0
   17.0912  -11.5095   -1.8556 H   0  0  0  1  0  0  0  0  0  0  0  0
   18.7960  -12.7993   -1.9116 C   0  0  0  1  0  0  0  0  0  0  0  0
   18.6316  -13.1299   -0.9073 H   0  0  0  1  0  0  0  0  0  0  0  0
   20.1989  -12.6750   -2.1491 O   0  0  0  1  0  0  0  0  0  0  0  0
   20.3439  -12.2193   -2.9815 H   0  0  0  1  0  0  0  0  0  0  0  0
   18.2644  -13.3059   -4.3124 C   0  0  0  1  0  0  0  0  0  0  0  0
   19.2835  -13.2472   -4.6331 H   0  0  0  1  0  0  0  0  0  0  0  0
   17.5493  -14.2070   -5.1591 O   0  0  0  1  0  0  0  0  0  0  0  0
   17.9626  -15.0728   -5.1273 H   0  0  0  1  0  0  0  0  0  0  0  0
   18.2145  -13.8151   -2.8735 C   0  0  0  1  0  0  0  0  0  0  0  0
   18.7775  -14.7224   -2.8050 H   0  0  0  1  0  0  0  0  0  0  0  0
   17.6274  -11.9215   -4.3935 C   0  0  0  1  0  0  0  0  0  0  0  0
   16.5878  -11.9979   -4.1521 H   0  0  0  1  0  0  0  0  0  0  0  0
   17.7817  -11.3831   -5.8044 C   0  0  0  1  0  0  0  0  0  0  0  0
   17.4677  -10.3613   -5.8515 H   0  0  0  1  0  0  0  0  0  0  0  0
   17.2058  -11.9658   -6.4925 H   0  0  0  1  0  0  0  0  0  0  0  0
   19.1844  -11.4926   -6.1033 O   0  0  0  1  0  0  0  0  0  0  0  0
   19.3075  -11.5281   -7.0547 H   0  0  0  1  0  0  0  0  0  0  0  0
   18.2547  -11.0291   -3.4814 O   0  0  0  1  0  0  0  0  0  0  0  0
   16.8551  -14.0693   -2.5165 O   0  0  0  1  0  0  0  0  0  0  0  0
   16.5882  -13.4648   -1.8202 H   0  0  0  1  0  0  0  0  0  0  0  0
  1  2  1  0  0  0  0
  1  3  1  0  0  0  0
  1  4  1  0  0  0  0
  1  5  1  0  0  0  0
  3  7  1  0  0  0  0
  3  8  1  0  0  0  0
  4 10  1  0  0  0  0
  5  6  1  0  0  0  0
  5 12  1  0  0  0  0
  5 14  1  0  0  0  0
  7 16  1  0  0  0  0
  7 18  2  0  0  0  0
  8  9  1  0  0  0  0
  8 19  2  0  0  0  0
 10 11  1  0  0  0  0
 10 12  1  0  0  0  0
 10 21  1  0  0  0  0
 12 13  1  0  0  0  0
 12 24  1  0  0  0  0
 14 15  1  0  0  0  0
 16 17  1  0  0  0  0
 16 26  1  0  0  0  0
 19 20  1  0  0  0  0
 19 26  1  0  0  0  0
 21 22  1  0  0  0  0
 21 23  1  0  0  0  0
 21 27  1  0  0  0  0
 24 25  1  0  0  0  0
 26 28  2  0  0  0  0
 27 29  1  0  0  0  0
 29 30  1  0  0  0  0
 29 31  1  0  0  0  0
 29 32  2  0  0  0  0
 30 33  1  0  0  0  0
 33 34  1  0  0  0  0
 33 35  2  0  0  0  0
 33 36  1  0  0  0  0
 36 37  1  0  0  0  0
 37 38  1  0  0  0  0
 37 39  1  0  0  0  0
 37 56  1  0  0  0  0
 39 40  1  0  0  0  0
 39 41  1  0  0  0  0
 39 47  1  0  0  0  0
 41 42  1  0  0  0  0
 43 44  1  0  0  0  0
 43 45  1  0  0  0  0
 43 47  1  0  0  0  0
 43 49  1  0  0  0  0
 45 46  1  0  0  0  0
 47 48  1  0  0  0  0
 47 57  1  0  0  0  0
 49 50  1  0  0  0  0
 49 51  1  0  0  0  0
 49 56  1  0  0  0  0
 51 52  1  0  0  0  0
 51 53  1  0  0  0  0
 51 54  1  0  0  0  0
 54 55  1  0  0  0  0
 57 58  1  0  0  0  0
M  BCL ATM C_TeTeTeTe H_S N_TrTrTrPi2 O_Te2Te2TeTe C_TeTeTeTe H_S C_TrTrTrPi C_TrTrTrPi H_S C_TeTeTeTe H_S C_TeTeTeTe H_S O_Te2Te2TeTe H_S N_TrTrTrPi2 H_S O_Tr2Tr2TrPi C_TrTrTrPi H_S C_TeTeTeTe H_S H_S O_Te2Te2TeTe H_S C_TrTrTrPi O_Tr2TrTrPi2 O_Tr2Tr2TrPi P_TeTeTeTePi O_Tr2TrTrPi2 O_Te2Te2TeTe O_Tr2Tr2TrPi P_TeTeTeTePi O_Te2Te2TeTe O_Tr2Tr2TrPi O_Tr2TrTrPi2 C_TeTeTeTe H_S C_TeTeTeTe H_S O_Te2Te2TeTe H_S C_TeTeTeTe H_S O_Te2Te2TeTe H_S C_TeTeTeTe H_S C_TeTeTeTe H_S C_TeTeTeTe H_S H_S O_Te2Te2TeTe H_S O_Te2Te2TeTe O_Te2Te2TeTe H_S
M  BCL BND NonConjugatedSingleBond NonConjugatedSingleBond NonConjugatedSingleBondInRing NonConjugatedSingleBondInRing ConjugatedSingleBondInRing ConjugatedSingleBondInRing NonConjugatedSingleBondInRing NonConjugatedSingleBond NonConjugatedSingleBondInRing NonConjugatedSingleBond ConjugatedSingleBondInRing ConjugatedDoubleBond NonConjugatedSingleBond ConjugatedDoubleBondInRing NonConjugatedSingleBond NonConjugatedSingleBondInRing NonConjugatedSingleBond NonConjugatedSingleBond NonConjugatedSingleBond NonConjugatedSingleBond NonConjugatedSingleBond ConjugatedSingleBondInRing NonConjugatedSingleBond ConjugatedSingleBondInRing NonConjugatedSingleBond NonConjugatedSingleBond NonConjugatedSingleBond NonConjugatedSingleBond ConjugatedDoubleBond ConjugatedSingleBond ConjugatedSingleBond ConjugatedSingleBond ConjugatedDoubleBond ConjugatedSingleBond ConjugatedSingleBond ConjugatedDoubleBond ConjugatedSingleBond NonConjugatedSingleBond NonConjugatedSingleBond NonConjugatedSingleBondInRing NonConjugatedSingleBondInRing NonConjugatedSingleBond NonConjugatedSingleBond NonConjugatedSingleBondInRing NonConjugatedSingleBond NonConjugatedSingleBond NonConjugatedSingleBond NonConjugatedSingleBondInRing NonConjugatedSingleBondInRing NonConjugatedSingleBond NonConjugatedSingleBond NonConjugatedSingleBond NonConjugatedSingleBond NonConjugatedSingleBond NonConjugatedSingleBondInRing NonConjugatedSingleBond NonConjugatedSingleBond NonConjugatedSingleBond NonConjugatedSingleBond NonConjugatedSingleBond
M  BCL CHI   1   S   5   S  10   S  12   R  29   S  33   R  37   S  39   R  43   R  47   R  49   S
M  BCL DBI - Z - - -
M  END
> <ConfClashScore>
0 

> <ConfOneFourInteractionScore>
-0.978176 

> <ConfScore>
-0.155057 

> <ConfScorePBest>
0.0142745 

> <ConfTolerance>
1.47328 

$$$$
ChEBI.****
  PyMOL2.5          3D                             0

 58 60  0  0  0  0  0  0  0  0999 V2000
   16.5339  -10.1757    3.6667 C   0  0  0  1  0  0  0  0  0  0  0  0
   16.0997   -9.4439    3.0181 H   0  0  0  1  0  0  0  0  0  0  0  0
   15.7830  -11.4304    3.5612 N   0  0  0  1  0  0  0  0  0  0  0  0
   17.9412  -10.3863    3.3398 O   0  0  0  1  0  0  0  0  0  0  0  0
   16.5524   -9.6815    5.0950 C   0  0  0  1  0  0  0  0  0  0  0  0
   15.7100   -9.0520    5.2926 H   0  0  0  1  0  0  0  0  0  0  0  0
   16.4341  -12.6215    3.8211 C   0  0  0  1  0  0  0  0  0  0  0  0
   14.4594  -11.3816    3.2081 C   0  0  0  1  0  0  0  0  0  0  0  0
   14.0167  -10.4667    2.9874 H   0  0  0  1  0  0  0  0  0  0  0  0
   18.7607   -9.6026    4.1606 C   0  0  0  1  0  0  0  0  0  0  0  0
   19.4662  -10.2253    4.6701 H   0  0  0  1  0  0  0  0  0  0  0  0
   17.8626   -8.8875    5.1824 C   0  0  0  1  0  0  0  0  0  0  0  0
   17.7115   -7.8632    4.9127 H   0  0  0  1  0  0  0  0  0  0  0  0
   16.5561  -10.7771    6.0151 O   0  0  0  1  0  0  0  0  0  0  0  0
   16.8363  -10.4684    6.8799 H   0  0  0  1  0  0  0  0  0  0  0  0
   15.6814  -13.7616    3.7545 N   0  0  0  1  0  0  0  0  0  0  0  0
   16.1297  -14.6136    3.9375 H   0  0  0  1  0  0  0  0  0  0  0  0
   17.6222  -12.6543    4.0963 O   0  0  0  1  0  0  0  0  0  0  0  0
   13.7026  -12.5515    3.1431 C   0  0  0  1  0  0  0  0  0  0  0  0
   12.6979  -12.5127    2.8771 H   0  0  0  1  0  0  0  0  0  0  0  0
   19.4818   -8.6071    3.3443 C   0  0  0  1  0  0  0  0  0  0  0  0
   20.1127   -8.0210    3.9795 H   0  0  0  1  0  0  0  0  0  0  0  0
   18.7729   -7.9696    2.8586 H   0  0  0  1  0  0  0  0  0  0  0  0
   18.4202   -8.9574    6.4956 O   0  0  0  1  0  0  0  0  0  0  0  0
   18.6584   -8.0753    6.7900 H   0  0  0  1  0  0  0  0  0  0  0  0
   14.3189  -13.7994    3.4445 C   0  0  0  1  0  0  0  0  0  0  0  0
   20.2934   -9.2664    2.3441 O   0  0  0  1  0  0  0  0  0  0  0  0
   13.6912  -14.8456    3.4327 O   0  0  0  1  0  0  0  0  0  0  0  0
   20.3904   -8.6324    0.9265 P   0  0  0  1  0  0  0  0  0  0  0  0
   18.8881   -8.7309    0.4144 O   0  0  0  1  0  0  0  0  0  0  0  0
   20.7707   -7.1858    1.0924 O   0  0  0  0  0  0  0  0  0  0  0  0
   21.2008   -9.4568   -0.0091 O   0  0  0  1  0  0  0  0  0  0  0  0
   17.9083   -9.8095   -0.1428 P   0  0  0  1  0  0  0  0  0  0  0  0
   17.7908  -10.9445    0.8618 O   0  0  0  0  0  0  0  0  0  0  0  0
   16.6330   -9.1445   -0.5481 O   0  0  0  1  0  0  0  0  0  0  0  0
   18.6762  -10.3853   -1.3898 O   0  0  0  1  0  0  0  0  0  0  0  0
   18.0978  -11.4284   -2.1957 C   0  0  0  1  0  0  0  0  0  0  0  0
   17.0624  -11.5377   -1.9490 H   0  0  0  1  0  0  0  0  0  0  0  0
   18.8270  -12.7453   -1.9218 C   0  0  0  1  0  0  0  0  0  0  0  0
   18.6652  -13.0332   -0.9041 H   0  0  0  1  0  0  0  0  0  0  0  0
   20.2255  -12.5657   -2.1500 O   0  0  0  1  0  0  0  0  0  0  0  0
   20.3946  -11.6552   -2.4028 H   0  0  0  1  0  0  0  0  0  0  0  0
   18.3517  -13.3953   -4.2998 C   0  0  0  1  0  0  0  0  0  0  0  0
   19.3711  -13.3036   -4.6120 H   0  0  0  1  0  0  0  0  0  0  0  0
   17.6910  -14.3711   -5.1084 O   0  0  0  1  0  0  0  0  0  0  0  0
   16.9341  -13.9693   -5.5412 H   0  0  0  1  0  0  0  0  0  0  0  0
   18.3071  -13.8343   -2.8378 C   0  0  0  1  0  0  0  0  0  0  0  0
   18.9115  -14.7090   -2.7177 H   0  0  0  1  0  0  0  0  0  0  0  0
   17.6510  -12.0487   -4.4571 C   0  0  0  1  0  0  0  0  0  0  0  0
   16.6131  -12.1629   -4.2235 H   0  0  0  1  0  0  0  0  0  0  0  0
   17.7967  -11.5792   -5.8760 C   0  0  0  1  0  0  0  0  0  0  0  0
   17.3181  -10.6287   -5.9870 H   0  0  0  1  0  0  0  0  0  0  0  0
   17.3393  -12.2884   -6.5340 H   0  0  0  1  0  0  0  0  0  0  0  0
   19.1752  -11.4549   -6.1999 O   0  0  0  1  0  0  0  0  0  0  0  0
   19.6239  -12.2831   -6.0148 H   0  0  0  1  0  0  0  0  0  0  0  0
   18.2232  -11.0832   -3.5842 O   0  0  0  1  0  0  0  0  0  0  0  0
   16.9562  -14.1356   -2.4831 O   0  0  0  1  0  0  0  0  0  0  0  0
   16.9362  -14.5414   -1.6134 H   0  0  0  1  0  0  0  0  0  0  0  0
  1  2  1  0  0  0  0
  1  3  1  0  0  0  0
  1  4  1  0  0  0  0
  1  5  1  0  0  0  0
  3  7  1  0  0  0  0
  3  8  1  0  0  0  0
  4 10  1  0  0  0  0
  5  6  1  0  0  0  0
  5 12  1  0  0  0  0
  5 14  1  0  0  0  0
  7 16  1  0  0  0  0
  7 18  2  0  0  0  0
  8  9  1  0  0  0  0
  8 19  2  0  0  0  0
 10 11  1  0  0  0  0
 10 12  1  0  0  0  0
 10 21  1  0  0  0  0
 12 13  1  0  0  0  0
 12 24  1  0  0  0  0
 14 15  1  0  0  0  0
 16 17  1  0  0  0  0
 16 26  1  0  0  0  0
 19 20  1  0  0  0  0
 19 26  1  0  0  0  0
 21 22  1  0  0  0  0
 21 23  1  0  0  0  0
 21 27  1  0  0  0  0
 24 25  1  0  0  0  0
 26 28  2  0  0  0  0
 27 29  1  0  0  0  0
 29 30  1  0  0  0  0
 29 31  1  0  0  0  0
 29 32  2  0  0  0  0
 30 33  1  0  0  0  0
 33 34  1  0  0  0  0
 33 35  2  0  0  0  0
 33 36  1  0  0  0  0
 36 37  1  0  0  0  0
 37 38  1  0  0  0  0
 37 39  1  0  0  0  0
 37 56  1  0  0  0  0
 39 40  1  0  0  0  0
 39 41  1  0  0  0  0
 39 47  1  0  0  0  0
 41 42  1  0  0  0  0
 43 44  1  0  0  0  0
 43 45  1  0  0  0  0
 43 47  1  0  0  0  0
 43 49  1  0  0  0  0
 45 46  1  0  0  0  0
 47 48  1  0  0  0  0
 47 57  1  0  0  0  0
 49 50  1  0  0  0  0
 49 51  1  0  0  0  0
 49 56  1  0  0  0  0
 51 52  1  0  0  0  0
 51 53  1  0  0  0  0
 51 54  1  0  0  0  0
 54 55  1  0  0  0  0
 57 58  1  0  0  0  0
M  BCL ATM C_TeTeTeTe H_S N_TrTrTrPi2 O_Te2Te2TeTe C_TeTeTeTe H_S C_TrTrTrPi C_TrTrTrPi H_S C_TeTeTeTe H_S C_TeTeTeTe H_S O_Te2Te2TeTe H_S N_TrTrTrPi2 H_S O_Tr2Tr2TrPi C_TrTrTrPi H_S C_TeTeTeTe H_S H_S O_Te2Te2TeTe H_S C_TrTrTrPi O_Tr2TrTrPi2 O_Tr2Tr2TrPi P_TeTeTeTePi O_Tr2TrTrPi2 O_Te2Te2TeTe O_Tr2Tr2TrPi P_TeTeTeTePi O_Te2Te2TeTe O_Tr2Tr2TrPi O_Tr2TrTrPi2 C_TeTeTeTe H_S C_TeTeTeTe H_S O_Te2Te2TeTe H_S C_TeTeTeTe H_S O_Te2Te2TeTe H_S C_TeTeTeTe H_S C_TeTeTeTe H_S C_TeTeTeTe H_S H_S O_Te2Te2TeTe H_S O_Te2Te2TeTe O_Te2Te2TeTe H_S
M  BCL BND NonConjugatedSingleBond NonConjugatedSingleBond NonConjugatedSingleBondInRing NonConjugatedSingleBondInRing ConjugatedSingleBondInRing ConjugatedSingleBondInRing NonConjugatedSingleBondInRing NonConjugatedSingleBond NonConjugatedSingleBondInRing NonConjugatedSingleBond ConjugatedSingleBondInRing ConjugatedDoubleBond NonConjugatedSingleBond ConjugatedDoubleBondInRing NonConjugatedSingleBond NonConjugatedSingleBondInRing NonConjugatedSingleBond NonConjugatedSingleBond NonConjugatedSingleBond NonConjugatedSingleBond NonConjugatedSingleBond ConjugatedSingleBondInRing NonConjugatedSingleBond ConjugatedSingleBondInRing NonConjugatedSingleBond NonConjugatedSingleBond NonConjugatedSingleBond NonConjugatedSingleBond ConjugatedDoubleBond ConjugatedSingleBond ConjugatedSingleBond ConjugatedSingleBond ConjugatedDoubleBond ConjugatedSingleBond ConjugatedSingleBond ConjugatedDoubleBond ConjugatedSingleBond NonConjugatedSingleBond NonConjugatedSingleBond NonConjugatedSingleBondInRing NonConjugatedSingleBondInRing NonConjugatedSingleBond NonConjugatedSingleBond NonConjugatedSingleBondInRing NonConjugatedSingleBond NonConjugatedSingleBond NonConjugatedSingleBond NonConjugatedSingleBondInRing NonConjugatedSingleBondInRing NonConjugatedSingleBond NonConjugatedSingleBond NonConjugatedSingleBond NonConjugatedSingleBond NonConjugatedSingleBond NonConjugatedSingleBondInRing NonConjugatedSingleBond NonConjugatedSingleBond NonConjugatedSingleBond NonConjugatedSingleBond NonConjugatedSingleBond
M  BCL CHI   1   S   5   S  10   S  12   R  29   S  33   R  37   S  39   R  43   R  47   R  49   S
M  BCL DBI - Z - - -
M  END
> <ConfClashScore>
0 

> <ConfOneFourInteractionScore>
-0.984177 

> <ConfScore>
-0.152853 

> <ConfScorePBest>
0.0141715 

> <ConfTolerance>
1.78412 

$$$$
ChEBI.****
  PyMOL2.5          3D                             0

 58 60  0  0  0  0  0  0  0  0999 V2000
   10.7428   -7.9267   -0.7154 C   0  0  0  1  0  0  0  0  0  0  0  0
   10.8476   -6.8973   -0.9877 H   0  0  0  1  0  0  0  0  0  0  0  0
    9.3982   -8.4039   -1.0990 N   0  0  0  1  0  0  0  0  0  0  0  0
   11.7400   -8.7064   -1.3413 O   0  0  0  1  0  0  0  0  0  0  0  0
   10.9634   -8.1057    0.7757 C   0  0  0  1  0  0  0  0  0  0  0  0
   11.6909   -7.4136    1.1453 H   0  0  0  1  0  0  0  0  0  0  0  0
    8.3607   -7.5032   -1.1762 C   0  0  0  1  0  0  0  0  0  0  0  0
    9.2119   -9.7269   -1.3689 C   0  0  0  1  0  0  0  0  0  0  0  0
   10.0194  -10.3751   -1.2727 H   0  0  0  1  0  0  0  0  0  0  0  0
   12.3582   -9.6049   -0.3803 C   0  0  0  1  0  0  0  0  0  0  0  0
   12.3833  -10.6046   -0.7611 H   0  0  0  1  0  0  0  0  0  0  0  0
   11.4680   -9.5233    0.8589 C   0  0  0  1  0  0  0  0  0  0  0  0
   12.0300   -9.6858    1.7548 H   0  0  0  1  0  0  0  0  0  0  0  0
    9.7433   -7.9480    1.5013 O   0  0  0  1  0  0  0  0  0  0  0  0
    9.3384   -7.1091    1.2689 H   0  0  0  1  0  0  0  0  0  0  0  0
    7.1388   -8.0210   -1.5711 N   0  0  0  1  0  0  0  0  0  0  0  0
    6.3814   -7.4017   -1.6272 H   0  0  0  1  0  0  0  0  0  0  0  0
    8.5084   -6.3212   -0.9129 O   0  0  0  1  0  0  0  0  0  0  0  0
    8.0369  -10.2214   -1.7507 C   0  0  0  1  0  0  0  0  0  0  0  0
    7.9425  -11.2388   -1.9444 H   0  0  0  1  0  0  0  0  0  0  0  0
   13.7305   -9.1636   -0.0644 C   0  0  0  1  0  0  0  0  0  0  0  0
   14.2277   -9.9303    0.4922 H   0  0  0  1  0  0  0  0  0  0  0  0
   13.6869   -8.2688    0.5206 H   0  0  0  1  0  0  0  0  0  0  0  0
   10.3941  -10.4638    0.7924 O   0  0  0  1  0  0  0  0  0  0  0  0
   10.6314  -11.1797    0.1985 H   0  0  0  1  0  0  0  0  0  0  0  0
    6.9034   -9.3618   -1.8960 C   0  0  0  1  0  0  0  0  0  0  0  0
   14.4696   -8.9023   -1.2806 O   0  0  0  1  0  0  0  0  0  0  0  0
    5.8143   -9.7663   -2.2745 O   0  0  0  1  0  0  0  0  0  0  0  0
   15.9577   -8.3316   -1.1645 P   0  0  0  1  0  0  0  0  0  0  0  0
   16.5964   -9.5139   -0.2838 O   0  0  0  1  0  0  0  0  0  0  0  0
   16.6223   -8.3035   -2.4927 O   0  0  0  0  0  0  0  0  0  0  0  0
   15.8927   -7.1012   -0.3316 O   0  0  0  1  0  0  0  0  0  0  0  0
   18.1253   -9.9056    0.0757 P   0  0  0  1  0  0  0  0  0  0  0  0
   18.8957   -8.7003    0.4561 O   0  0  0  0  0  0  0  0  0  0  0  0
   18.1066  -11.0623    1.0013 O   0  0  0  1  0  0  0  0  0  0  0  0
   18.6435  -10.2591   -1.3675 O   0  0  0  1  0  0  0  0  0  0  0  0
   18.0796  -11.3091   -2.1695 C   0  0  0  1  0  0  0  0  0  0  0  0
   17.0385  -11.4106   -1.9444 H   0  0  0  1  0  0  0  0  0  0  0  0
   18.7966  -12.6250   -1.8606 C   0  0  0  1  0  0  0  0  0  0  0  0
   18.6109  -12.8976   -0.8427 H   0  0  0  1  0  0  0  0  0  0  0  0
   20.2006  -12.4545   -2.0600 O   0  0  0  1  0  0  0  0  0  0  0  0
   20.3612  -12.1337   -2.9505 H   0  0  0  1  0  0  0  0  0  0  0  0
   18.3715  -13.3070   -4.2391 C   0  0  0  1  0  0  0  0  0  0  0  0
   19.3980  -13.2242   -4.5297 H   0  0  0  1  0  0  0  0  0  0  0  0
   17.7333  -14.2784   -5.0374 O   0  0  0  1  0  0  0  0  0  0  0  0
   17.2644  -14.8985   -4.4741 H   0  0  0  1  0  0  0  0  0  0  0  0
   18.2923  -13.7248   -2.7723 C   0  0  0  1  0  0  0  0  0  0  0  0
   18.8900  -14.6003   -2.6263 H   0  0  0  1  0  0  0  0  0  0  0  0
   17.6805  -11.9600   -4.4312 C   0  0  0  1  0  0  0  0  0  0  0  0
   16.6371  -12.0665   -4.2192 H   0  0  0  1  0  0  0  0  0  0  0  0
   17.8601  -11.5109   -5.8553 C   0  0  0  1  0  0  0  0  0  0  0  0
   17.5721  -12.3098   -6.5062 H   0  0  0  1  0  0  0  0  0  0  0  0
   18.8918  -11.2755   -6.0135 H   0  0  0  1  0  0  0  0  0  0  0  0
   17.0781  -10.3651   -6.1658 O   0  0  0  1  0  0  0  0  0  0  0  0
   17.5950   -9.5718   -6.0074 H   0  0  0  1  0  0  0  0  0  0  0  0
   18.2374  -10.9844   -3.5596 O   0  0  0  1  0  0  0  0  0  0  0  0
   16.9330  -14.0153   -2.4437 O   0  0  0  1  0  0  0  0  0  0  0  0
   16.6627  -14.8244   -2.8841 H   0  0  0  1  0  0  0  0  0  0  0  0
  1  2  1  0  0  0  0
  1  3  1  0  0  0  0
  1  4  1  0  0  0  0
  1  5  1  0  0  0  0
  3  7  1  0  0  0  0
  3  8  1  0  0  0  0
  4 10  1  0  0  0  0
  5  6  1  0  0  0  0
  5 12  1  0  0  0  0
  5 14  1  0  0  0  0
  7 16  1  0  0  0  0
  7 18  2  0  0  0  0
  8  9  1  0  0  0  0
  8 19  2  0  0  0  0
 10 11  1  0  0  0  0
 10 12  1  0  0  0  0
 10 21  1  0  0  0  0
 12 13  1  0  0  0  0
 12 24  1  0  0  0  0
 14 15  1  0  0  0  0
 16 17  1  0  0  0  0
 16 26  1  0  0  0  0
 19 20  1  0  0  0  0
 19 26  1  0  0  0  0
 21 22  1  0  0  0  0
 21 23  1  0  0  0  0
 21 27  1  0  0  0  0
 24 25  1  0  0  0  0
 26 28  2  0  0  0  0
 27 29  1  0  0  0  0
 29 30  1  0  0  0  0
 29 31  1  0  0  0  0
 29 32  2  0  0  0  0
 30 33  1  0  0  0  0
 33 34  1  0  0  0  0
 33 35  2  0  0  0  0
 33 36  1  0  0  0  0
 36 37  1  0  0  0  0
 37 38  1  0  0  0  0
 37 39  1  0  0  0  0
 37 56  1  0  0  0  0
 39 40  1  0  0  0  0
 39 41  1  0  0  0  0
 39 47  1  0  0  0  0
 41 42  1  0  0  0  0
 43 44  1  0  0  0  0
 43 45  1  0  0  0  0
 43 47  1  0  0  0  0
 43 49  1  0  0  0  0
 45 46  1  0  0  0  0
 47 48  1  0  0  0  0
 47 57  1  0  0  0  0
 49 50  1  0  0  0  0
 49 51  1  0  0  0  0
 49 56  1  0  0  0  0
 51 52  1  0  0  0  0
 51 53  1  0  0  0  0
 51 54  1  0  0  0  0
 54 55  1  0  0  0  0
 57 58  1  0  0  0  0
M  BCL ATM C_TeTeTeTe H_S N_TrTrTrPi2 O_Te2Te2TeTe C_TeTeTeTe H_S C_TrTrTrPi C_TrTrTrPi H_S C_TeTeTeTe H_S C_TeTeTeTe H_S O_Te2Te2TeTe H_S N_TrTrTrPi2 H_S O_Tr2Tr2TrPi C_TrTrTrPi H_S C_TeTeTeTe H_S H_S O_Te2Te2TeTe H_S C_TrTrTrPi O_Tr2TrTrPi2 O_Tr2Tr2TrPi P_TeTeTeTePi O_Tr2TrTrPi2 O_Te2Te2TeTe O_Tr2Tr2TrPi P_TeTeTeTePi O_Te2Te2TeTe O_Tr2Tr2TrPi O_Tr2TrTrPi2 C_TeTeTeTe H_S C_TeTeTeTe H_S O_Te2Te2TeTe H_S C_TeTeTeTe H_S O_Te2Te2TeTe H_S C_TeTeTeTe H_S C_TeTeTeTe H_S C_TeTeTeTe H_S H_S O_Te2Te2TeTe H_S O_Te2Te2TeTe O_Te2Te2TeTe H_S
M  BCL BND NonConjugatedSingleBond NonConjugatedSingleBond NonConjugatedSingleBondInRing NonConjugatedSingleBondInRing ConjugatedSingleBondInRing ConjugatedSingleBondInRing NonConjugatedSingleBondInRing NonConjugatedSingleBond NonConjugatedSingleBondInRing NonConjugatedSingleBond ConjugatedSingleBondInRing ConjugatedDoubleBond NonConjugatedSingleBond ConjugatedDoubleBondInRing NonConjugatedSingleBond NonConjugatedSingleBondInRing NonConjugatedSingleBond NonConjugatedSingleBond NonConjugatedSingleBond NonConjugatedSingleBond NonConjugatedSingleBond ConjugatedSingleBondInRing NonConjugatedSingleBond ConjugatedSingleBondInRing NonConjugatedSingleBond NonConjugatedSingleBond NonConjugatedSingleBond NonConjugatedSingleBond ConjugatedDoubleBond ConjugatedSingleBond ConjugatedSingleBond ConjugatedSingleBond ConjugatedDoubleBond ConjugatedSingleBond ConjugatedSingleBond ConjugatedDoubleBond ConjugatedSingleBond NonConjugatedSingleBond NonConjugatedSingleBond NonConjugatedSingleBondInRing NonConjugatedSingleBondInRing NonConjugatedSingleBond NonConjugatedSingleBond NonConjugatedSingleBondInRing NonConjugatedSingleBond NonConjugatedSingleBond NonConjugatedSingleBond NonConjugatedSingleBondInRing NonConjugatedSingleBondInRing NonConjugatedSingleBond NonConjugatedSingleBond NonConjugatedSingleBond NonConjugatedSingleBond NonConjugatedSingleBond NonConjugatedSingleBondInRing NonConjugatedSingleBond NonConjugatedSingleBond NonConjugatedSingleBond NonConjugatedSingleBond NonConjugatedSingleBond
M  BCL CHI   1   S   5   S  10   S  12   R  29   S  33   R  37   S  39   R  43   R  47   R  49   S
M  BCL DBI - Z - - -
M  END
> <ConfClashScore>
0 

> <ConfOneFourInteractionScore>
-0.978191 

> <ConfScore>
-0.152158 

> <ConfScorePBest>
0.0140685 

> <ConfTolerance>
1.48447 

$$$$
ChEBI.****
  PyMOL2.5          3D                             0

 58 60  0  0  0  0  0  0  0  0999 V2000
   26.9804  -10.1678   -0.9573 C   0  0  0  1  0  0  0  0  0  0  0  0
   27.2560   -9.3911   -0.2750 H   0  0  0  1  0  0  0  0  0  0  0  0
   27.9677  -11.2549   -0.8883 N   0  0  0  1  0  0  0  0  0  0  0  0
   25.6721  -10.6619   -0.6487 O   0  0  0  1  0  0  0  0  0  0  0  0
   26.8915   -9.6184   -2.3824 C   0  0  0  1  0  0  0  0  0  0  0  0
   26.6003   -8.5888   -2.3890 H   0  0  0  1  0  0  0  0  0  0  0  0
   29.2240  -10.9933   -0.3734 C   0  0  0  1  0  0  0  0  0  0  0  0
   27.6180  -12.5118   -1.3389 C   0  0  0  1  0  0  0  0  0  0  0  0
   26.6649  -12.6506   -1.7312 H   0  0  0  1  0  0  0  0  0  0  0  0
   24.8990  -10.7999   -1.8550 C   0  0  0  1  0  0  0  0  0  0  0  0
   24.5195  -11.7969   -1.9382 H   0  0  0  1  0  0  0  0  0  0  0  0
   25.8071  -10.5095   -2.9700 C   0  0  0  1  0  0  0  0  0  0  0  0
   25.2870   -9.9995   -3.7538 H   0  0  0  1  0  0  0  0  0  0  0  0
   28.1287   -9.7685   -3.0803 O   0  0  0  1  0  0  0  0  0  0  0  0
   28.8130  -10.0407   -2.4645 H   0  0  0  1  0  0  0  0  0  0  0  0
   30.0797  -12.0776   -0.3078 N   0  0  0  1  0  0  0  0  0  0  0  0
   30.9688  -11.9239    0.0745 H   0  0  0  1  0  0  0  0  0  0  0  0
   29.5556   -9.8796   -0.0017 O   0  0  0  1  0  0  0  0  0  0  0  0
   28.4475  -13.5584   -1.2945 C   0  0  0  1  0  0  0  0  0  0  0  0
   28.1442  -14.4878   -1.6490 H   0  0  0  1  0  0  0  0  0  0  0  0
   23.7616   -9.8323   -1.8515 C   0  0  0  1  0  0  0  0  0  0  0  0
   24.1193   -8.8503   -1.6218 H   0  0  0  1  0  0  0  0  0  0  0  0
   23.0348  -10.1269   -1.1237 H   0  0  0  1  0  0  0  0  0  0  0  0
   26.3743  -11.7174   -3.4811 O   0  0  0  1  0  0  0  0  0  0  0  0
   25.6868  -12.2442   -3.8951 H   0  0  0  1  0  0  0  0  0  0  0  0
   29.7849  -13.3774   -0.7411 C   0  0  0  1  0  0  0  0  0  0  0  0
   23.1700   -9.8449   -3.1719 O   0  0  0  1  0  0  0  0  0  0  0  0
   30.5901  -14.2930   -0.6610 O   0  0  0  1  0  0  0  0  0  0  0  0
   21.8014   -9.0394   -3.4746 P   0  0  0  1  0  0  0  0  0  0  0  0
   20.7141   -9.7187   -2.5063 O   0  0  0  1  0  0  0  0  0  0  0  0
   22.0769   -7.6361   -3.0843 O   0  0  0  0  0  0  0  0  0  0  0  0
   21.3019   -9.3251   -4.8069 O   0  0  0  1  0  0  0  0  0  0  0  0
   19.3726   -9.1486   -1.7959 P   0  0  0  1  0  0  0  0  0  0  0  0
   19.7407   -8.4657   -0.5315 O   0  0  0  0  0  0  0  0  0  0  0  0
   18.4922   -8.4728   -2.7814 O   0  0  0  1  0  0  0  0  0  0  0  0
   18.7483  -10.5079   -1.3314 O   0  0  0  1  0  0  0  0  0  0  0  0
   18.1284  -11.4594   -2.1827 C   0  0  0  1  0  0  0  0  0  0  0  0
   17.0969  -11.5587   -1.9160 H   0  0  0  1  0  0  0  0  0  0  0  0
   18.8261  -12.8120   -2.0259 C   0  0  0  1  0  0  0  0  0  0  0  0
   18.6823  -13.1696   -1.0277 H   0  0  0  1  0  0  0  0  0  0  0  0
   20.2229  -12.6537   -2.2790 O   0  0  0  1  0  0  0  0  0  0  0  0
   20.5515  -11.8911   -1.7972 H   0  0  0  1  0  0  0  0  0  0  0  0
   18.2715  -13.2720   -4.4308 C   0  0  0  1  0  0  0  0  0  0  0  0
   19.2847  -13.1850   -4.7637 H   0  0  0  1  0  0  0  0  0  0  0  0
   17.5628  -14.1669   -5.2893 O   0  0  0  1  0  0  0  0  0  0  0  0
   17.4135  -14.9981   -4.8327 H   0  0  0  1  0  0  0  0  0  0  0  0
   18.2517  -13.8162   -3.0041 C   0  0  0  1  0  0  0  0  0  0  0  0
   18.8336  -14.7133   -2.9649 H   0  0  0  1  0  0  0  0  0  0  0  0
   17.6060  -11.8992   -4.4701 C   0  0  0  1  0  0  0  0  0  0  0  0
   16.5715  -12.0024   -4.2167 H   0  0  0  1  0  0  0  0  0  0  0  0
   17.7286  -11.3305   -5.8544 C   0  0  0  1  0  0  0  0  0  0  0  0
   17.3895  -12.0531   -6.5670 H   0  0  0  1  0  0  0  0  0  0  0  0
   18.7524  -11.0890   -6.0503 H   0  0  0  1  0  0  0  0  0  0  0  0
   16.9371  -10.1546   -5.9607 O   0  0  0  1  0  0  0  0  0  0  0  0
   16.8368   -9.9183   -6.8857 H   0  0  0  1  0  0  0  0  0  0  0  0
   18.2280  -11.0163   -3.5452 O   0  0  0  1  0  0  0  0  0  0  0  0
   16.9027  -14.1063   -2.6351 O   0  0  0  1  0  0  0  0  0  0  0  0
   16.7803  -13.9256   -1.7002 H   0  0  0  1  0  0  0  0  0  0  0  0
  1  2  1  0  0  0  0
  1  3  1  0  0  0  0
  1  4  1  0  0  0  0
  1  5  1  0  0  0  0
  3  7  1  0  0  0  0
  3  8  1  0  0  0  0
  4 10  1  0  0  0  0
  5  6  1  0  0  0  0
  5 12  1  0  0  0  0
  5 14  1  0  0  0  0
  7 16  1  0  0  0  0
  7 18  2  0  0  0  0
  8  9  1  0  0  0  0
  8 19  2  0  0  0  0
 10 11  1  0  0  0  0
 10 12  1  0  0  0  0
 10 21  1  0  0  0  0
 12 13  1  0  0  0  0
 12 24  1  0  0  0  0
 14 15  1  0  0  0  0
 16 17  1  0  0  0  0
 16 26  1  0  0  0  0
 19 20  1  0  0  0  0
 19 26  1  0  0  0  0
 21 22  1  0  0  0  0
 21 23  1  0  0  0  0
 21 27  1  0  0  0  0
 24 25  1  0  0  0  0
 26 28  2  0  0  0  0
 27 29  1  0  0  0  0
 29 30  1  0  0  0  0
 29 31  1  0  0  0  0
 29 32  2  0  0  0  0
 30 33  1  0  0  0  0
 33 34  1  0  0  0  0
 33 35  2  0  0  0  0
 33 36  1  0  0  0  0
 36 37  1  0  0  0  0
 37 38  1  0  0  0  0
 37 39  1  0  0  0  0
 37 56  1  0  0  0  0
 39 40  1  0  0  0  0
 39 41  1  0  0  0  0
 39 47  1  0  0  0  0
 41 42  1  0  0  0  0
 43 44  1  0  0  0  0
 43 45  1  0  0  0  0
 43 47  1  0  0  0  0
 43 49  1  0  0  0  0
 45 46  1  0  0  0  0
 47 48  1  0  0  0  0
 47 57  1  0  0  0  0
 49 50  1  0  0  0  0
 49 51  1  0  0  0  0
 49 56  1  0  0  0  0
 51 52  1  0  0  0  0
 51 53  1  0  0  0  0
 51 54  1  0  0  0  0
 54 55  1  0  0  0  0
 57 58  1  0  0  0  0
M  BCL ATM C_TeTeTeTe H_S N_TrTrTrPi2 O_Te2Te2TeTe C_TeTeTeTe H_S C_TrTrTrPi C_TrTrTrPi H_S C_TeTeTeTe H_S C_TeTeTeTe H_S O_Te2Te2TeTe H_S N_TrTrTrPi2 H_S O_Tr2Tr2TrPi C_TrTrTrPi H_S C_TeTeTeTe H_S H_S O_Te2Te2TeTe H_S C_TrTrTrPi O_Tr2TrTrPi2 O_Tr2Tr2TrPi P_TeTeTeTePi O_Tr2TrTrPi2 O_Te2Te2TeTe O_Tr2Tr2TrPi P_TeTeTeTePi O_Te2Te2TeTe O_Tr2Tr2TrPi O_Tr2TrTrPi2 C_TeTeTeTe H_S C_TeTeTeTe H_S O_Te2Te2TeTe H_S C_TeTeTeTe H_S O_Te2Te2TeTe H_S C_TeTeTeTe H_S C_TeTeTeTe H_S C_TeTeTeTe H_S H_S O_Te2Te2TeTe H_S O_Te2Te2TeTe O_Te2Te2TeTe H_S
M  BCL BND NonConjugatedSingleBond NonConjugatedSingleBond NonConjugatedSingleBondInRing NonConjugatedSingleBondInRing ConjugatedSingleBondInRing ConjugatedSingleBondInRing NonConjugatedSingleBondInRing NonConjugatedSingleBond NonConjugatedSingleBondInRing NonConjugatedSingleBond ConjugatedSingleBondInRing ConjugatedDoubleBond NonConjugatedSingleBond ConjugatedDoubleBondInRing NonConjugatedSingleBond NonConjugatedSingleBondInRing NonConjugatedSingleBond NonConjugatedSingleBond NonConjugatedSingleBond NonConjugatedSingleBond NonConjugatedSingleBond ConjugatedSingleBondInRing NonConjugatedSingleBond ConjugatedSingleBondInRing NonConjugatedSingleBond NonConjugatedSingleBond NonConjugatedSingleBond NonConjugatedSingleBond ConjugatedDoubleBond ConjugatedSingleBond ConjugatedSingleBond ConjugatedSingleBond ConjugatedDoubleBond ConjugatedSingleBond ConjugatedSingleBond ConjugatedDoubleBond ConjugatedSingleBond NonConjugatedSingleBond NonConjugatedSingleBond NonConjugatedSingleBondInRing NonConjugatedSingleBondInRing NonConjugatedSingleBond NonConjugatedSingleBond NonConjugatedSingleBondInRing NonConjugatedSingleBond NonConjugatedSingleBond NonConjugatedSingleBond NonConjugatedSingleBondInRing NonConjugatedSingleBondInRing NonConjugatedSingleBond NonConjugatedSingleBond NonConjugatedSingleBond NonConjugatedSingleBond NonConjugatedSingleBond NonConjugatedSingleBondInRing NonConjugatedSingleBond NonConjugatedSingleBond NonConjugatedSingleBond NonConjugatedSingleBond NonConjugatedSingleBond
M  BCL CHI   1   S   5   S  10   S  12   R  29   S  33   R  37   S  39   R  43   R  47   R  49   S
M  BCL DBI - Z - - -
M  END
> <ConfClashScore>
0 

> <ConfOneFourInteractionScore>
-0.964527 

> <ConfScore>
-0.148947 

> <ConfScorePBest>
0.0139655 

> <ConfTolerance>
1.45315 

$$$$
ChEBI.****
  PyMOL2.5          3D                             0

 58 60  0  0  0  0  0  0  0  0999 V2000
   19.9464  -12.3351    2.1953 C   0  0  0  1  0  0  0  0  0  0  0  0
   18.9580  -11.9501    2.0550 H   0  0  0  1  0  0  0  0  0  0  0  0
   19.8698  -13.7248    2.6429 N   0  0  0  1  0  0  0  0  0  0  0  0
   20.6595  -12.2591    1.0018 O   0  0  0  1  0  0  0  0  0  0  0  0
   20.6974  -11.4870    3.2402 C   0  0  0  1  0  0  0  0  0  0  0  0
   20.0200  -11.0460    3.9414 H   0  0  0  1  0  0  0  0  0  0  0  0
   18.6583  -14.2170    3.0704 C   0  0  0  1  0  0  0  0  0  0  0  0
   21.0220  -14.4982    2.6205 C   0  0  0  1  0  0  0  0  0  0  0  0
   21.9262  -14.0963    2.3003 H   0  0  0  1  0  0  0  0  0  0  0  0
   21.5859  -11.1439    1.0336 C   0  0  0  1  0  0  0  0  0  0  0  0
   22.5927  -11.5006    0.9695 H   0  0  0  1  0  0  0  0  0  0  0  0
   21.3681  -10.4186    2.3671 C   0  0  0  1  0  0  0  0  0  0  0  0
   20.7298   -9.5690    2.2421 H   0  0  0  1  0  0  0  0  0  0  0  0
   21.6673  -12.2674    3.9404 O   0  0  0  1  0  0  0  0  0  0  0  0
   22.4330  -12.4066    3.3783 H   0  0  0  1  0  0  0  0  0  0  0  0
   18.6296  -15.5201    3.5027 N   0  0  0  1  0  0  0  0  0  0  0  0
   17.7736  -15.8856    3.8094 H   0  0  0  1  0  0  0  0  0  0  0  0
   17.6531  -13.5257    3.0657 O   0  0  0  1  0  0  0  0  0  0  0  0
   20.9414  -15.7986    3.0286 C   0  0  0  1  0  0  0  0  0  0  0  0
   21.7888  -16.3985    2.9663 H   0  0  0  1  0  0  0  0  0  0  0  0
   21.3120  -10.2172   -0.1050 C   0  0  0  1  0  0  0  0  0  0  0  0
   21.8746   -9.3151    0.0160 H   0  0  0  1  0  0  0  0  0  0  0  0
   20.2682   -9.9847   -0.1426 H   0  0  0  1  0  0  0  0  0  0  0  0
   22.6116  -10.0015    2.9325 O   0  0  0  1  0  0  0  0  0  0  0  0
   23.2171   -9.7557    2.2292 H   0  0  0  1  0  0  0  0  0  0  0  0
   19.7489  -16.3549    3.5309 C   0  0  0  1  0  0  0  0  0  0  0  0
   21.7117  -10.8878   -1.3233 O   0  0  0  1  0  0  0  0  0  0  0  0
   19.6971  -17.4944    3.9636 O   0  0  0  1  0  0  0  0  0  0  0  0
   21.8636  -10.0623   -2.7199 P   0  0  0  1  0  0  0  0  0  0  0  0
   20.2723   -9.9046   -2.8752 O   0  0  0  1  0  0  0  0  0  0  0  0
   22.4829   -8.7376   -2.4670 O   0  0  0  0  0  0  0  0  0  0  0  0
   22.4128  -10.9373   -3.7797 O   0  0  0  1  0  0  0  0  0  0  0  0
   19.1680   -9.0312   -2.0552 P   0  0  0  1  0  0  0  0  0  0  0  0
   19.8350   -8.2088   -1.0154 O   0  0  0  0  0  0  0  0  0  0  0  0
   18.2138   -8.3957   -2.9912 O   0  0  0  1  0  0  0  0  0  0  0  0
   18.5406  -10.3185   -1.4030 O   0  0  0  1  0  0  0  0  0  0  0  0
   18.0156  -11.3770   -2.2203 C   0  0  0  1  0  0  0  0  0  0  0  0
   16.9936  -11.5565   -1.9591 H   0  0  0  1  0  0  0  0  0  0  0  0
   18.8307  -12.6506   -1.9872 C   0  0  0  1  0  0  0  0  0  0  0  0
   18.7054  -12.9693   -0.9735 H   0  0  0  1  0  0  0  0  0  0  0  0
   20.2109  -12.3784   -2.2343 O   0  0  0  1  0  0  0  0  0  0  0  0
   20.7386  -13.1374   -1.9751 H   0  0  0  1  0  0  0  0  0  0  0  0
   18.3552  -13.2797   -4.3707 C   0  0  0  1  0  0  0  0  0  0  0  0
   19.3611  -13.1175   -4.6975 H   0  0  0  1  0  0  0  0  0  0  0  0
   17.7431  -14.2777   -5.1890 O   0  0  0  1  0  0  0  0  0  0  0  0
   17.2975  -14.9200   -4.6318 H   0  0  0  1  0  0  0  0  0  0  0  0
   18.3641  -13.7510   -2.9181 C   0  0  0  1  0  0  0  0  0  0  0  0
   19.0242  -14.5881   -2.8271 H   0  0  0  1  0  0  0  0  0  0  0  0
   17.5686  -11.9772   -4.4871 C   0  0  0  1  0  0  0  0  0  0  0  0
   16.5442  -12.1615   -4.2390 H   0  0  0  1  0  0  0  0  0  0  0  0
   17.6594  -11.4700   -5.8976 C   0  0  0  1  0  0  0  0  0  0  0  0
   17.2183  -12.1841   -6.5613 H   0  0  0  1  0  0  0  0  0  0  0  0
   18.6871  -11.3270   -6.1587 H   0  0  0  1  0  0  0  0  0  0  0  0
   16.9675  -10.2331   -6.0070 O   0  0  0  1  0  0  0  0  0  0  0  0
   16.0675  -10.3941   -6.2997 H   0  0  0  1  0  0  0  0  0  0  0  0
   18.0945  -10.9957   -3.6028 O   0  0  0  1  0  0  0  0  0  0  0  0
   17.0417  -14.1441   -2.5482 O   0  0  0  1  0  0  0  0  0  0  0  0
   16.6023  -13.4142   -2.1057 H   0  0  0  1  0  0  0  0  0  0  0  0
  1  2  1  0  0  0  0
  1  3  1  0  0  0  0
  1  4  1  0  0  0  0
  1  5  1  0  0  0  0
  3  7  1  0  0  0  0
  3  8  1  0  0  0  0
  4 10  1  0  0  0  0
  5  6  1  0  0  0  0
  5 12  1  0  0  0  0
  5 14  1  0  0  0  0
  7 16  1  0  0  0  0
  7 18  2  0  0  0  0
  8  9  1  0  0  0  0
  8 19  2  0  0  0  0
 10 11  1  0  0  0  0
 10 12  1  0  0  0  0
 10 21  1  0  0  0  0
 12 13  1  0  0  0  0
 12 24  1  0  0  0  0
 14 15  1  0  0  0  0
 16 17  1  0  0  0  0
 16 26  1  0  0  0  0
 19 20  1  0  0  0  0
 19 26  1  0  0  0  0
 21 22  1  0  0  0  0
 21 23  1  0  0  0  0
 21 27  1  0  0  0  0
 24 25  1  0  0  0  0
 26 28  2  0  0  0  0
 27 29  1  0  0  0  0
 29 30  1  0  0  0  0
 29 31  1  0  0  0  0
 29 32  2  0  0  0  0
 30 33  1  0  0  0  0
 33 34  1  0  0  0  0
 33 35  2  0  0  0  0
 33 36  1  0  0  0  0
 36 37  1  0  0  0  0
 37 38  1  0  0  0  0
 37 39  1  0  0  0  0
 37 56  1  0  0  0  0
 39 40  1  0  0  0  0
 39 41  1  0  0  0  0
 39 47  1  0  0  0  0
 41 42  1  0  0  0  0
 43 44  1  0  0  0  0
 43 45  1  0  0  0  0
 43 47  1  0  0  0  0
 43 49  1  0  0  0  0
 45 46  1  0  0  0  0
 47 48  1  0  0  0  0
 47 57  1  0  0  0  0
 49 50  1  0  0  0  0
 49 51  1  0  0  0  0
 49 56  1  0  0  0  0
 51 52  1  0  0  0  0
 51 53  1  0  0  0  0
 51 54  1  0  0  0  0
 54 55  1  0  0  0  0
 57 58  1  0  0  0  0
M  BCL ATM C_TeTeTeTe H_S N_TrTrTrPi2 O_Te2Te2TeTe C_TeTeTeTe H_S C_TrTrTrPi C_TrTrTrPi H_S C_TeTeTeTe H_S C_TeTeTeTe H_S O_Te2Te2TeTe H_S N_TrTrTrPi2 H_S O_Tr2Tr2TrPi C_TrTrTrPi H_S C_TeTeTeTe H_S H_S O_Te2Te2TeTe H_S C_TrTrTrPi O_Tr2TrTrPi2 O_Tr2Tr2TrPi P_TeTeTeTePi O_Tr2TrTrPi2 O_Te2Te2TeTe O_Tr2Tr2TrPi P_TeTeTeTePi O_Te2Te2TeTe O_Tr2Tr2TrPi O_Tr2TrTrPi2 C_TeTeTeTe H_S C_TeTeTeTe H_S O_Te2Te2TeTe H_S C_TeTeTeTe H_S O_Te2Te2TeTe H_S C_TeTeTeTe H_S C_TeTeTeTe H_S C_TeTeTeTe H_S H_S O_Te2Te2TeTe H_S O_Te2Te2TeTe O_Te2Te2TeTe H_S
M  BCL BND NonConjugatedSingleBond NonConjugatedSingleBond NonConjugatedSingleBondInRing NonConjugatedSingleBondInRing ConjugatedSingleBondInRing ConjugatedSingleBondInRing NonConjugatedSingleBondInRing NonConjugatedSingleBond NonConjugatedSingleBondInRing NonConjugatedSingleBond ConjugatedSingleBondInRing ConjugatedDoubleBond NonConjugatedSingleBond ConjugatedDoubleBondInRing NonConjugatedSingleBond NonConjugatedSingleBondInRing NonConjugatedSingleBond NonConjugatedSingleBond NonConjugatedSingleBond NonConjugatedSingleBond NonConjugatedSingleBond ConjugatedSingleBondInRing NonConjugatedSingleBond ConjugatedSingleBondInRing NonConjugatedSingleBond NonConjugatedSingleBond NonConjugatedSingleBond NonConjugatedSingleBond ConjugatedDoubleBond ConjugatedSingleBond ConjugatedSingleBond ConjugatedSingleBond ConjugatedDoubleBond ConjugatedSingleBond ConjugatedSingleBond ConjugatedDoubleBond ConjugatedSingleBond NonConjugatedSingleBond NonConjugatedSingleBond NonConjugatedSingleBondInRing NonConjugatedSingleBondInRing NonConjugatedSingleBond NonConjugatedSingleBond NonConjugatedSingleBondInRing NonConjugatedSingleBond NonConjugatedSingleBond NonConjugatedSingleBond NonConjugatedSingleBondInRing NonConjugatedSingleBondInRing NonConjugatedSingleBond NonConjugatedSingleBond NonConjugatedSingleBond NonConjugatedSingleBond NonConjugatedSingleBond NonConjugatedSingleBondInRing NonConjugatedSingleBond NonConjugatedSingleBond NonConjugatedSingleBond NonConjugatedSingleBond NonConjugatedSingleBond
M  BCL CHI   1   S   5   S  10   S  12   R  29   S  33   R  37   S  39   R  43   R  47   R  49   S
M  BCL DBI - Z - - -
M  END
> <ConfClashScore>
0 

> <ConfOneFourInteractionScore>
-0.968518 

> <ConfScore>
-0.145922 

> <ConfScorePBest>
0.0138625 

> <ConfTolerance>
1.63063 

$$$$
ChEBI.****
  PyMOL2.5          3D                             0

 58 60  0  0  0  0  0  0  0  0999 V2000
   20.2704   -7.2279   -8.8345 C   0  0  0  1  0  0  0  0  0  0  0  0
   21.3319   -7.3292   -8.7455 H   0  0  0  1  0  0  0  0  0  0  0  0
   19.7813   -8.1200   -9.8845 N   0  0  0  1  0  0  0  0  0  0  0  0
   19.6603   -7.5414   -7.6228 O   0  0  0  1  0  0  0  0  0  0  0  0
   19.9082   -5.7688   -9.1734 C   0  0  0  1  0  0  0  0  0  0  0  0
   20.6973   -5.2886   -9.7135 H   0  0  0  1  0  0  0  0  0  0  0  0
   20.4905   -8.2437  -11.0482 C   0  0  0  1  0  0  0  0  0  0  0  0
   18.6122   -8.8241   -9.6875 C   0  0  0  1  0  0  0  0  0  0  0  0
   18.1132   -8.7012   -8.7833 H   0  0  0  1  0  0  0  0  0  0  0  0
   19.2553   -6.3333   -6.9303 C   0  0  0  1  0  0  0  0  0  0  0  0
   18.1906   -6.3086   -6.8267 H   0  0  0  1  0  0  0  0  0  0  0  0
   19.7292   -5.1489   -7.7815 C   0  0  0  1  0  0  0  0  0  0  0  0
   20.6548   -4.7580   -7.4136 H   0  0  0  1  0  0  0  0  0  0  0  0
   18.6977   -5.6977   -9.9326 O   0  0  0  1  0  0  0  0  0  0  0  0
   18.9071   -5.6869  -10.8694 H   0  0  0  1  0  0  0  0  0  0  0  0
   19.9461   -9.1143  -11.9671 N   0  0  0  1  0  0  0  0  0  0  0  0
   20.4383   -9.2280  -12.8068 H   0  0  0  1  0  0  0  0  0  0  0  0
   21.5246   -7.6306  -11.2561 O   0  0  0  1  0  0  0  0  0  0  0  0
   18.0796   -9.6599  -10.5956 C   0  0  0  1  0  0  0  0  0  0  0  0
   17.1862  -10.1580  -10.4075 H   0  0  0  1  0  0  0  0  0  0  0  0
   19.8889   -6.2798   -5.5791 C   0  0  0  1  0  0  0  0  0  0  0  0
   19.7893   -5.2967   -5.1686 H   0  0  0  1  0  0  0  0  0  0  0  0
   20.9260   -6.5327   -5.6527 H   0  0  0  1  0  0  0  0  0  0  0  0
   18.7489   -4.1104   -7.8054 O   0  0  0  1  0  0  0  0  0  0  0  0
   19.1018   -3.3267   -7.3780 H   0  0  0  1  0  0  0  0  0  0  0  0
   18.7826   -9.8430  -11.8317 C   0  0  0  1  0  0  0  0  0  0  0  0
   19.2068   -7.2375   -4.7357 O   0  0  0  1  0  0  0  0  0  0  0  0
   18.3788  -10.5928  -12.7053 O   0  0  0  1  0  0  0  0  0  0  0  0
   19.6024   -7.4996   -3.2496 P   0  0  0  1  0  0  0  0  0  0  0  0
   18.3199   -8.2650   -2.6559 O   0  0  0  1  0  0  0  0  0  0  0  0
   20.7595   -8.4849   -3.2068 O   0  0  0  0  0  0  0  0  0  0  0  0
   19.8189   -6.1885   -2.5659 O   0  0  0  1  0  0  0  0  0  0  0  0
   18.1369   -8.8890   -1.1871 P   0  0  0  1  0  0  0  0  0  0  0  0
   18.9336   -8.1305   -0.1813 O   0  0  0  0  0  0  0  0  0  0  0  0
   16.6895   -9.1059   -0.9823 O   0  0  0  1  0  0  0  0  0  0  0  0
   18.8226  -10.2825   -1.4403 O   0  0  0  1  0  0  0  0  0  0  0  0
   18.1574  -11.3002   -2.1870 C   0  0  0  1  0  0  0  0  0  0  0  0
   17.1214  -11.3197   -1.9201 H   0  0  0  1  0  0  0  0  0  0  0  0
   18.7890  -12.6574   -1.8705 C   0  0  0  1  0  0  0  0  0  0  0  0
   18.6246  -12.8913   -0.8394 H   0  0  0  1  0  0  0  0  0  0  0  0
   20.1927  -12.5951   -2.1273 O   0  0  0  1  0  0  0  0  0  0  0  0
   20.3557  -12.0215   -2.8796 H   0  0  0  1  0  0  0  0  0  0  0  0
   18.2217  -13.3629   -4.2121 C   0  0  0  1  0  0  0  0  0  0  0  0
   19.2391  -13.3625   -4.5435 H   0  0  0  1  0  0  0  0  0  0  0  0
   17.4737  -14.3164   -4.9697 O   0  0  0  1  0  0  0  0  0  0  0  0
   18.0383  -14.7063   -5.6410 H   0  0  0  1  0  0  0  0  0  0  0  0
   18.1708  -13.7387   -2.7328 C   0  0  0  1  0  0  0  0  0  0  0  0
   18.7088  -14.6519   -2.5862 H   0  0  0  1  0  0  0  0  0  0  0  0
   17.6229  -11.9738   -4.4138 C   0  0  0  1  0  0  0  0  0  0  0  0
   16.5838  -11.9985   -4.1597 H   0  0  0  1  0  0  0  0  0  0  0  0
   17.7779  -11.5731   -5.8551 C   0  0  0  1  0  0  0  0  0  0  0  0
   17.4582  -12.3856   -6.4736 H   0  0  0  1  0  0  0  0  0  0  0  0
   18.8102  -11.3648   -6.0444 H   0  0  0  1  0  0  0  0  0  0  0  0
   17.0124  -10.4213   -6.1836 O   0  0  0  1  0  0  0  0  0  0  0  0
   16.4740  -10.1687   -5.4301 H   0  0  0  1  0  0  0  0  0  0  0  0
   18.2831  -11.0212   -3.5902 O   0  0  0  1  0  0  0  0  0  0  0  0
   16.8081  -13.9208   -2.3454 O   0  0  0  1  0  0  0  0  0  0  0  0
   16.6998  -14.7904   -1.9534 H   0  0  0  1  0  0  0  0  0  0  0  0
  1  2  1  0  0  0  0
  1  3  1  0  0  0  0
  1  4  1  0  0  0  0
  1  5  1  0  0  0  0
  3  7  1  0  0  0  0
  3  8  1  0  0  0  0
  4 10  1  0  0  0  0
  5  6  1  0  0  0  0
  5 12  1  0  0  0  0
  5 14  1  0  0  0  0
  7 16  1  0  0  0  0
  7 18  2  0  0  0  0
  8  9  1  0  0  0  0
  8 19  2  0  0  0  0
 10 11  1  0  0  0  0
 10 12  1  0  0  0  0
 10 21  1  0  0  0  0
 12 13  1  0  0  0  0
 12 24  1  0  0  0  0
 14 15  1  0  0  0  0
 16 17  1  0  0  0  0
 16 26  1  0  0  0  0
 19 20  1  0  0  0  0
 19 26  1  0  0  0  0
 21 22  1  0  0  0  0
 21 23  1  0  0  0  0
 21 27  1  0  0  0  0
 24 25  1  0  0  0  0
 26 28  2  0  0  0  0
 27 29  1  0  0  0  0
 29 30  1  0  0  0  0
 29 31  1  0  0  0  0
 29 32  2  0  0  0  0
 30 33  1  0  0  0  0
 33 34  1  0  0  0  0
 33 35  2  0  0  0  0
 33 36  1  0  0  0  0
 36 37  1  0  0  0  0
 37 38  1  0  0  0  0
 37 39  1  0  0  0  0
 37 56  1  0  0  0  0
 39 40  1  0  0  0  0
 39 41  1  0  0  0  0
 39 47  1  0  0  0  0
 41 42  1  0  0  0  0
 43 44  1  0  0  0  0
 43 45  1  0  0  0  0
 43 47  1  0  0  0  0
 43 49  1  0  0  0  0
 45 46  1  0  0  0  0
 47 48  1  0  0  0  0
 47 57  1  0  0  0  0
 49 50  1  0  0  0  0
 49 51  1  0  0  0  0
 49 56  1  0  0  0  0
 51 52  1  0  0  0  0
 51 53  1  0  0  0  0
 51 54  1  0  0  0  0
 54 55  1  0  0  0  0
 57 58  1  0  0  0  0
M  BCL ATM C_TeTeTeTe H_S N_TrTrTrPi2 O_Te2Te2TeTe C_TeTeTeTe H_S C_TrTrTrPi C_TrTrTrPi H_S C_TeTeTeTe H_S C_TeTeTeTe H_S O_Te2Te2TeTe H_S N_TrTrTrPi2 H_S O_Tr2Tr2TrPi C_TrTrTrPi H_S C_TeTeTeTe H_S H_S O_Te2Te2TeTe H_S C_TrTrTrPi O_Tr2TrTrPi2 O_Tr2Tr2TrPi P_TeTeTeTePi O_Tr2TrTrPi2 O_Te2Te2TeTe O_Tr2Tr2TrPi P_TeTeTeTePi O_Te2Te2TeTe O_Tr2Tr2TrPi O_Tr2TrTrPi2 C_TeTeTeTe H_S C_TeTeTeTe H_S O_Te2Te2TeTe H_S C_TeTeTeTe H_S O_Te2Te2TeTe H_S C_TeTeTeTe H_S C_TeTeTeTe H_S C_TeTeTeTe H_S H_S O_Te2Te2TeTe H_S O_Te2Te2TeTe O_Te2Te2TeTe H_S
M  BCL BND NonConjugatedSingleBond NonConjugatedSingleBond NonConjugatedSingleBondInRing NonConjugatedSingleBondInRing ConjugatedSingleBondInRing ConjugatedSingleBondInRing NonConjugatedSingleBondInRing NonConjugatedSingleBond NonConjugatedSingleBondInRing NonConjugatedSingleBond ConjugatedSingleBondInRing ConjugatedDoubleBond NonConjugatedSingleBond ConjugatedDoubleBondInRing NonConjugatedSingleBond NonConjugatedSingleBondInRing NonConjugatedSingleBond NonConjugatedSingleBond NonConjugatedSingleBond NonConjugatedSingleBond NonConjugatedSingleBond ConjugatedSingleBondInRing NonConjugatedSingleBond ConjugatedSingleBondInRing NonConjugatedSingleBond NonConjugatedSingleBond NonConjugatedSingleBond NonConjugatedSingleBond ConjugatedDoubleBond ConjugatedSingleBond ConjugatedSingleBond ConjugatedSingleBond ConjugatedDoubleBond ConjugatedSingleBond ConjugatedSingleBond ConjugatedDoubleBond ConjugatedSingleBond NonConjugatedSingleBond NonConjugatedSingleBond NonConjugatedSingleBondInRing NonConjugatedSingleBondInRing NonConjugatedSingleBond NonConjugatedSingleBond NonConjugatedSingleBondInRing NonConjugatedSingleBond NonConjugatedSingleBond NonConjugatedSingleBond NonConjugatedSingleBondInRing NonConjugatedSingleBondInRing NonConjugatedSingleBond NonConjugatedSingleBond NonConjugatedSingleBond NonConjugatedSingleBond NonConjugatedSingleBond NonConjugatedSingleBondInRing NonConjugatedSingleBond NonConjugatedSingleBond NonConjugatedSingleBond NonConjugatedSingleBond NonConjugatedSingleBond
M  BCL CHI   1   S   5   S  10   S  12   R  29   S  33   R  37   S  39   R  43   R  47   R  49   S
M  BCL DBI - Z - - -
M  END
> <ConfClashScore>
0 

> <ConfOneFourInteractionScore>
-0.968587 

> <ConfScore>
-0.143853 

> <ConfScorePBest>
0.0137595 

> <ConfTolerance>
1.59433 

$$$$
ChEBI.****
  PyMOL2.5          3D                             0

 58 60  0  0  0  0  0  0  0  0999 V2000
   21.8244   -8.8790    4.3951 C   0  0  0  1  0  0  0  0  0  0  0  0
   20.8388   -8.5363    4.1587 H   0  0  0  1  0  0  0  0  0  0  0  0
   21.7671   -9.7677    5.5547 N   0  0  0  1  0  0  0  0  0  0  0  0
   22.3664   -9.5549    3.3051 O   0  0  0  1  0  0  0  0  0  0  0  0
   22.7400   -7.6771    4.6988 C   0  0  0  1  0  0  0  0  0  0  0  0
   22.1812   -6.8527    5.0899 H   0  0  0  1  0  0  0  0  0  0  0  0
   22.6541  -10.8050    5.6534 C   0  0  0  1  0  0  0  0  0  0  0  0
   20.8199   -9.5481    6.5325 C   0  0  0  1  0  0  0  0  0  0  0  0
   20.1728   -8.7425    6.4151 H   0  0  0  1  0  0  0  0  0  0  0  0
   23.3230   -8.7147    2.6108 C   0  0  0  1  0  0  0  0  0  0  0  0
   24.2993   -9.1497    2.6620 H   0  0  0  1  0  0  0  0  0  0  0  0
   23.3160   -7.3522    3.3145 C   0  0  0  1  0  0  0  0  0  0  0  0
   22.6937   -6.6546    2.7940 H   0  0  0  1  0  0  0  0  0  0  0  0
   23.7729   -8.0324    5.6192 O   0  0  0  1  0  0  0  0  0  0  0  0
   23.9812   -8.9646    5.5229 H   0  0  0  1  0  0  0  0  0  0  0  0
   22.5181  -11.5758    6.7874 N   0  0  0  1  0  0  0  0  0  0  0  0
   23.1463  -12.3213    6.8875 H   0  0  0  1  0  0  0  0  0  0  0  0
   23.4998  -11.0298    4.8033 O   0  0  0  1  0  0  0  0  0  0  0  0
   20.6840  -10.3144    7.6285 C   0  0  0  1  0  0  0  0  0  0  0  0
   19.9434  -10.1183    8.3318 H   0  0  0  1  0  0  0  0  0  0  0  0
   22.9198   -8.5543    1.1710 C   0  0  0  1  0  0  0  0  0  0  0  0
   22.9815   -9.4921    0.6594 H   0  0  0  1  0  0  0  0  0  0  0  0
   23.5502   -7.8398    0.6842 H   0  0  0  1  0  0  0  0  0  0  0  0
   24.6345   -6.8256    3.4208 O   0  0  0  1  0  0  0  0  0  0  0  0
   24.6467   -5.9234    3.0930 H   0  0  0  1  0  0  0  0  0  0  0  0
   21.5925  -11.4107    7.7969 C   0  0  0  1  0  0  0  0  0  0  0  0
   21.5616   -8.0873    1.1991 O   0  0  0  1  0  0  0  0  0  0  0  0
   21.5499  -12.1481    8.7679 O   0  0  0  1  0  0  0  0  0  0  0  0
   20.7106   -7.6373   -0.0810 P   0  0  0  1  0  0  0  0  0  0  0  0
   20.4825   -9.0327   -0.8672 O   0  0  0  1  0  0  0  0  0  0  0  0
   19.3953   -7.1185    0.3911 O   0  0  0  0  0  0  0  0  0  0  0  0
   21.5909   -6.7997   -0.9146 O   0  0  0  1  0  0  0  0  0  0  0  0
   19.4382   -9.1653   -2.1109 P   0  0  0  1  0  0  0  0  0  0  0  0
   18.5794   -7.9655   -2.1854 O   0  0  0  0  0  0  0  0  0  0  0  0
   20.1356   -9.6395   -3.3197 O   0  0  0  1  0  0  0  0  0  0  0  0
   18.6596  -10.3422   -1.4146 O   0  0  0  1  0  0  0  0  0  0  0  0
   18.0991  -11.4286   -2.1965 C   0  0  0  1  0  0  0  0  0  0  0  0
   17.0804  -11.5865   -1.9098 H   0  0  0  1  0  0  0  0  0  0  0  0
   18.9024  -12.7055   -1.9409 C   0  0  0  1  0  0  0  0  0  0  0  0
   18.7935  -12.9917   -0.9156 H   0  0  0  1  0  0  0  0  0  0  0  0
   20.2807  -12.4595   -2.2234 O   0  0  0  1  0  0  0  0  0  0  0  0
   20.6255  -11.8156   -1.6004 H   0  0  0  1  0  0  0  0  0  0  0  0
   18.3707  -13.3999   -4.2942 C   0  0  0  1  0  0  0  0  0  0  0  0
   19.3718  -13.2612   -4.6457 H   0  0  0  1  0  0  0  0  0  0  0  0
   17.7295  -14.4138   -5.0694 O   0  0  0  1  0  0  0  0  0  0  0  0
   16.7814  -14.3769   -4.9239 H   0  0  0  1  0  0  0  0  0  0  0  0
   18.4029  -13.8271   -2.8284 C   0  0  0  1  0  0  0  0  0  0  0  0
   19.0540  -14.6700   -2.7250 H   0  0  0  1  0  0  0  0  0  0  0  0
   17.5988  -12.0910   -4.4347 C   0  0  0  1  0  0  0  0  0  0  0  0
   16.5773  -12.2540   -4.1609 H   0  0  0  1  0  0  0  0  0  0  0  0
   17.6676  -11.6273   -5.8637 C   0  0  0  1  0  0  0  0  0  0  0  0
   17.1611  -10.6883   -5.9447 H   0  0  0  1  0  0  0  0  0  0  0  0
   17.1801  -12.3507   -6.4833 H   0  0  0  1  0  0  0  0  0  0  0  0
   19.0048  -11.4649   -6.3179 O   0  0  0  1  0  0  0  0  0  0  0  0
   19.1590  -10.5430   -6.5370 H   0  0  0  1  0  0  0  0  0  0  0  0
   18.1549  -11.0905   -3.5912 O   0  0  0  1  0  0  0  0  0  0  0  0
   17.0833  -14.1911   -2.4205 O   0  0  0  1  0  0  0  0  0  0  0  0
   16.4579  -13.9520   -3.1084 H   0  0  0  1  0  0  0  0  0  0  0  0
  1  2  1  0  0  0  0
  1  3  1  0  0  0  0
  1  4  1  0  0  0  0
  1  5  1  0  0  0  0
  3  7  1  0  0  0  0
  3  8  1  0  0  0  0
  4 10  1  0  0  0  0
  5  6  1  0  0  0  0
  5 12  1  0  0  0  0
  5 14  1  0  0  0  0
  7 16  1  0  0  0  0
  7 18  2  0  0  0  0
  8  9  1  0  0  0  0
  8 19  2  0  0  0  0
 10 11  1  0  0  0  0
 10 12  1  0  0  0  0
 10 21  1  0  0  0  0
 12 13  1  0  0  0  0
 12 24  1  0  0  0  0
 14 15  1  0  0  0  0
 16 17  1  0  0  0  0
 16 26  1  0  0  0  0
 19 20  1  0  0  0  0
 19 26  1  0  0  0  0
 21 22  1  0  0  0  0
 21 23  1  0  0  0  0
 21 27  1  0  0  0  0
 24 25  1  0  0  0  0
 26 28  2  0  0  0  0
 27 29  1  0  0  0  0
 29 30  1  0  0  0  0
 29 31  1  0  0  0  0
 29 32  2  0  0  0  0
 30 33  1  0  0  0  0
 33 34  1  0  0  0  0
 33 35  2  0  0  0  0
 33 36  1  0  0  0  0
 36 37  1  0  0  0  0
 37 38  1  0  0  0  0
 37 39  1  0  0  0  0
 37 56  1  0  0  0  0
 39 40  1  0  0  0  0
 39 41  1  0  0  0  0
 39 47  1  0  0  0  0
 41 42  1  0  0  0  0
 43 44  1  0  0  0  0
 43 45  1  0  0  0  0
 43 47  1  0  0  0  0
 43 49  1  0  0  0  0
 45 46  1  0  0  0  0
 47 48  1  0  0  0  0
 47 57  1  0  0  0  0
 49 50  1  0  0  0  0
 49 51  1  0  0  0  0
 49 56  1  0  0  0  0
 51 52  1  0  0  0  0
 51 53  1  0  0  0  0
 51 54  1  0  0  0  0
 54 55  1  0  0  0  0
 57 58  1  0  0  0  0
M  BCL ATM C_TeTeTeTe H_S N_TrTrTrPi2 O_Te2Te2TeTe C_TeTeTeTe H_S C_TrTrTrPi C_TrTrTrPi H_S C_TeTeTeTe H_S C_TeTeTeTe H_S O_Te2Te2TeTe H_S N_TrTrTrPi2 H_S O_Tr2Tr2TrPi C_TrTrTrPi H_S C_TeTeTeTe H_S H_S O_Te2Te2TeTe H_S C_TrTrTrPi O_Tr2TrTrPi2 O_Tr2Tr2TrPi P_TeTeTeTePi O_Tr2TrTrPi2 O_Te2Te2TeTe O_Tr2Tr2TrPi P_TeTeTeTePi O_Te2Te2TeTe O_Tr2Tr2TrPi O_Tr2TrTrPi2 C_TeTeTeTe H_S C_TeTeTeTe H_S O_Te2Te2TeTe H_S C_TeTeTeTe H_S O_Te2Te2TeTe H_S C_TeTeTeTe H_S C_TeTeTeTe H_S C_TeTeTeTe H_S H_S O_Te2Te2TeTe H_S O_Te2Te2TeTe O_Te2Te2TeTe H_S
M  BCL BND NonConjugatedSingleBond NonConjugatedSingleBond NonConjugatedSingleBondInRing NonConjugatedSingleBondInRing ConjugatedSingleBondInRing ConjugatedSingleBondInRing NonConjugatedSingleBondInRing NonConjugatedSingleBond NonConjugatedSingleBondInRing NonConjugatedSingleBond ConjugatedSingleBondInRing ConjugatedDoubleBond NonConjugatedSingleBond ConjugatedDoubleBondInRing NonConjugatedSingleBond NonConjugatedSingleBondInRing NonConjugatedSingleBond NonConjugatedSingleBond NonConjugatedSingleBond NonConjugatedSingleBond NonConjugatedSingleBond ConjugatedSingleBondInRing NonConjugatedSingleBond ConjugatedSingleBondInRing NonConjugatedSingleBond NonConjugatedSingleBond NonConjugatedSingleBond NonConjugatedSingleBond ConjugatedDoubleBond ConjugatedSingleBond ConjugatedSingleBond ConjugatedSingleBond ConjugatedDoubleBond ConjugatedSingleBond ConjugatedSingleBond ConjugatedDoubleBond ConjugatedSingleBond NonConjugatedSingleBond NonConjugatedSingleBond NonConjugatedSingleBondInRing NonConjugatedSingleBondInRing NonConjugatedSingleBond NonConjugatedSingleBond NonConjugatedSingleBondInRing NonConjugatedSingleBond NonConjugatedSingleBond NonConjugatedSingleBond NonConjugatedSingleBondInRing NonConjugatedSingleBondInRing NonConjugatedSingleBond NonConjugatedSingleBond NonConjugatedSingleBond NonConjugatedSingleBond NonConjugatedSingleBond NonConjugatedSingleBondInRing NonConjugatedSingleBond NonConjugatedSingleBond NonConjugatedSingleBond NonConjugatedSingleBond NonConjugatedSingleBond
M  BCL CHI   1   S   5   S  10   S  12   R  29   S  33   R  37   S  39   R  43   R  47   R  49   S
M  BCL DBI - Z - - -
M  END
> <ConfClashScore>
0 

> <ConfOneFourInteractionScore>
-0.977952 

> <ConfScore>
-0.133787 

> <ConfScorePBest>
0.0136565 

> <ConfTolerance>
1.60966 

$$$$
ChEBI.****
  PyMOL2.5          3D                             0

 58 60  0  0  0  0  0  0  0  0999 V2000
   18.6933   -5.3498    3.4372 C   0  0  0  1  0  0  0  0  0  0  0  0
   19.0684   -5.7149    4.3704 H   0  0  0  1  0  0  0  0  0  0  0  0
   19.4840   -4.1876    3.0121 N   0  0  0  1  0  0  0  0  0  0  0  0
   18.7442   -6.3786    2.4423 O   0  0  0  1  0  0  0  0  0  0  0  0
   17.2169   -4.9708    3.5680 C   0  0  0  1  0  0  0  0  0  0  0  0
   16.7194   -5.5749    4.2976 H   0  0  0  1  0  0  0  0  0  0  0  0
   19.8971   -3.2769    3.9661 C   0  0  0  1  0  0  0  0  0  0  0  0
   19.7867   -4.0437    1.6830 C   0  0  0  1  0  0  0  0  0  0  0  0
   19.4267   -4.7339    0.9933 H   0  0  0  1  0  0  0  0  0  0  0  0
   17.5110   -6.4096    1.7005 C   0  0  0  1  0  0  0  0  0  0  0  0
   17.7084   -6.3228    0.6525 H   0  0  0  1  0  0  0  0  0  0  0  0
   16.7156   -5.2666    2.1621 C   0  0  0  1  0  0  0  0  0  0  0  0
   15.6754   -5.5167    2.1800 H   0  0  0  1  0  0  0  0  0  0  0  0
   17.0573   -3.5913    3.9021 O   0  0  0  1  0  0  0  0  0  0  0  0
   17.3409   -3.0477    3.1634 H   0  0  0  1  0  0  0  0  0  0  0  0
   20.6694   -2.2358    3.5293 N   0  0  0  1  0  0  0  0  0  0  0  0
   20.9706   -1.5827    4.1949 H   0  0  0  1  0  0  0  0  0  0  0  0
   19.5881   -3.3956    5.1403 O   0  0  0  1  0  0  0  0  0  0  0  0
   20.5746   -2.9773    1.2500 C   0  0  0  1  0  0  0  0  0  0  0  0
   20.8052   -2.8705    0.2415 H   0  0  0  1  0  0  0  0  0  0  0  0
   16.7819   -7.6855    1.9664 C   0  0  0  1  0  0  0  0  0  0  0  0
   16.3942   -7.6826    2.9637 H   0  0  0  1  0  0  0  0  0  0  0  0
   17.4447   -8.5164    1.8432 H   0  0  0  1  0  0  0  0  0  0  0  0
   16.9201   -4.1384    1.3104 O   0  0  0  1  0  0  0  0  0  0  0  0
   16.7777   -4.3966    0.3968 H   0  0  0  1  0  0  0  0  0  0  0  0
   21.0602   -2.0362    2.2021 C   0  0  0  1  0  0  0  0  0  0  0  0
   15.7029   -7.7761    1.0223 O   0  0  0  1  0  0  0  0  0  0  0  0
   21.7883   -1.0931    1.8724 O   0  0  0  1  0  0  0  0  0  0  0  0
   15.1564   -9.1324    0.3685 P   0  0  0  1  0  0  0  0  0  0  0  0
   16.4761   -9.7760   -0.2657 O   0  0  0  1  0  0  0  0  0  0  0  0
   14.6584  -10.0118    1.4642 O   0  0  0  0  0  0  0  0  0  0  0  0
   14.2717   -8.7506   -0.7464 O   0  0  0  1  0  0  0  0  0  0  0  0
   17.7843   -9.1243   -0.9617 P   0  0  0  1  0  0  0  0  0  0  0  0
   17.4370   -8.4240   -2.2329 O   0  0  0  0  0  0  0  0  0  0  0  0
   18.4372   -8.3411    0.1111 O   0  0  0  1  0  0  0  0  0  0  0  0
   18.6537  -10.3564   -1.4113 O   0  0  0  1  0  0  0  0  0  0  0  0
   18.0912  -11.3957   -2.1973 C   0  0  0  1  0  0  0  0  0  0  0  0
   17.0537  -11.5026   -1.9584 H   0  0  0  1  0  0  0  0  0  0  0  0
   18.8189  -12.7083   -1.8995 C   0  0  0  1  0  0  0  0  0  0  0  0
   18.6482  -12.9829   -0.8795 H   0  0  0  1  0  0  0  0  0  0  0  0
   20.2192  -12.5306   -2.1175 O   0  0  0  1  0  0  0  0  0  0  0  0
   20.3708  -11.6921   -2.5598 H   0  0  0  1  0  0  0  0  0  0  0  0
   18.3653  -13.3900   -4.2728 C   0  0  0  1  0  0  0  0  0  0  0  0
   19.3873  -13.3017   -4.5771 H   0  0  0  1  0  0  0  0  0  0  0  0
   17.7129  -14.3763   -5.0738 O   0  0  0  1  0  0  0  0  0  0  0  0
   16.9131  -14.0039   -5.4524 H   0  0  0  1  0  0  0  0  0  0  0  0
   18.3079  -13.8097   -2.8056 C   0  0  0  1  0  0  0  0  0  0  0  0
   18.9118  -14.6823   -2.6686 H   0  0  0  1  0  0  0  0  0  0  0  0
   17.6650  -12.0462   -4.4542 C   0  0  0  1  0  0  0  0  0  0  0  0
   16.6252  -12.1582   -4.2283 H   0  0  0  1  0  0  0  0  0  0  0  0
   17.8243  -11.5919   -5.8889 C   0  0  0  1  0  0  0  0  0  0  0  0
   17.2806  -12.2360   -6.5480 H   0  0  0  1  0  0  0  0  0  0  0  0
   18.8574  -11.5858   -6.1671 H   0  0  0  1  0  0  0  0  0  0  0  0
   17.2845  -10.2593   -5.9292 O   0  0  0  1  0  0  0  0  0  0  0  0
   16.5411  -10.2329   -6.5360 H   0  0  0  1  0  0  0  0  0  0  0  0
   18.2288  -11.0687   -3.5890 O   0  0  0  1  0  0  0  0  0  0  0  0
   16.9546  -14.1073   -2.4591 O   0  0  0  1  0  0  0  0  0  0  0  0
   16.9396  -14.7798   -1.7742 H   0  0  0  1  0  0  0  0  0  0  0  0
  1  2  1  0  0  0  0
  1  3  1  0  0  0  0
  1  4  1  0  0  0  0
  1  5  1  0  0  0  0
  3  7  1  0  0  0  0
  3  8  1  0  0  0  0
  4 10  1  0  0  0  0
  5  6  1  0  0  0  0
  5 12  1  0  0  0  0
  5 14  1  0  0  0  0
  7 16  1  0  0  0  0
  7 18  2  0  0  0  0
  8  9  1  0  0  0  0
  8 19  2  0  0  0  0
 10 11  1  0  0  0  0
 10 12  1  0  0  0  0
 10 21  1  0  0  0  0
 12 13  1  0  0  0  0
 12 24  1  0  0  0  0
 14 15  1  0  0  0  0
 16 17  1  0  0  0  0
 16 26  1  0  0  0  0
 19 20  1  0  0  0  0
 19 26  1  0  0  0  0
 21 22  1  0  0  0  0
 21 23  1  0  0  0  0
 21 27  1  0  0  0  0
 24 25  1  0  0  0  0
 26 28  2  0  0  0  0
 27 29  1  0  0  0  0
 29 30  1  0  0  0  0
 29 31  1  0  0  0  0
 29 32  2  0  0  0  0
 30 33  1  0  0  0  0
 33 34  1  0  0  0  0
 33 35  2  0  0  0  0
 33 36  1  0  0  0  0
 36 37  1  0  0  0  0
 37 38  1  0  0  0  0
 37 39  1  0  0  0  0
 37 56  1  0  0  0  0
 39 40  1  0  0  0  0
 39 41  1  0  0  0  0
 39 47  1  0  0  0  0
 41 42  1  0  0  0  0
 43 44  1  0  0  0  0
 43 45  1  0  0  0  0
 43 47  1  0  0  0  0
 43 49  1  0  0  0  0
 45 46  1  0  0  0  0
 47 48  1  0  0  0  0
 47 57  1  0  0  0  0
 49 50  1  0  0  0  0
 49 51  1  0  0  0  0
 49 56  1  0  0  0  0
 51 52  1  0  0  0  0
 51 53  1  0  0  0  0
 51 54  1  0  0  0  0
 54 55  1  0  0  0  0
 57 58  1  0  0  0  0
M  BCL ATM C_TeTeTeTe H_S N_TrTrTrPi2 O_Te2Te2TeTe C_TeTeTeTe H_S C_TrTrTrPi C_TrTrTrPi H_S C_TeTeTeTe H_S C_TeTeTeTe H_S O_Te2Te2TeTe H_S N_TrTrTrPi2 H_S O_Tr2Tr2TrPi C_TrTrTrPi H_S C_TeTeTeTe H_S H_S O_Te2Te2TeTe H_S C_TrTrTrPi O_Tr2TrTrPi2 O_Tr2Tr2TrPi P_TeTeTeTePi O_Tr2TrTrPi2 O_Te2Te2TeTe O_Tr2Tr2TrPi P_TeTeTeTePi O_Te2Te2TeTe O_Tr2Tr2TrPi O_Tr2TrTrPi2 C_TeTeTeTe H_S C_TeTeTeTe H_S O_Te2Te2TeTe H_S C_TeTeTeTe H_S O_Te2Te2TeTe H_S C_TeTeTeTe H_S C_TeTeTeTe H_S C_TeTeTeTe H_S H_S O_Te2Te2TeTe H_S O_Te2Te2TeTe O_Te2Te2TeTe H_S
M  BCL BND NonConjugatedSingleBond NonConjugatedSingleBond NonConjugatedSingleBondInRing NonConjugatedSingleBondInRing ConjugatedSingleBondInRing ConjugatedSingleBondInRing NonConjugatedSingleBondInRing NonConjugatedSingleBond NonConjugatedSingleBondInRing NonConjugatedSingleBond ConjugatedSingleBondInRing ConjugatedDoubleBond NonConjugatedSingleBond ConjugatedDoubleBondInRing NonConjugatedSingleBond NonConjugatedSingleBondInRing NonConjugatedSingleBond NonConjugatedSingleBond NonConjugatedSingleBond NonConjugatedSingleBond NonConjugatedSingleBond ConjugatedSingleBondInRing NonConjugatedSingleBond ConjugatedSingleBondInRing NonConjugatedSingleBond NonConjugatedSingleBond NonConjugatedSingleBond NonConjugatedSingleBond ConjugatedDoubleBond ConjugatedSingleBond ConjugatedSingleBond ConjugatedSingleBond ConjugatedDoubleBond ConjugatedSingleBond ConjugatedSingleBond ConjugatedDoubleBond ConjugatedSingleBond NonConjugatedSingleBond NonConjugatedSingleBond NonConjugatedSingleBondInRing NonConjugatedSingleBondInRing NonConjugatedSingleBond NonConjugatedSingleBond NonConjugatedSingleBondInRing NonConjugatedSingleBond NonConjugatedSingleBond NonConjugatedSingleBond NonConjugatedSingleBondInRing NonConjugatedSingleBondInRing NonConjugatedSingleBond NonConjugatedSingleBond NonConjugatedSingleBond NonConjugatedSingleBond NonConjugatedSingleBond NonConjugatedSingleBondInRing NonConjugatedSingleBond NonConjugatedSingleBond NonConjugatedSingleBond NonConjugatedSingleBond NonConjugatedSingleBond
M  BCL CHI   1   S   5   S  10   S  12   R  29   S  33   R  37   S  39   R  43   R  47   R  49   S
M  BCL DBI - Z - - -
M  END
> <ConfClashScore>
0 

> <ConfOneFourInteractionScore>
-0.971944 

> <ConfScore>
-0.126797 

> <ConfScorePBest>
0.0135535 

> <ConfTolerance>
1.58521 

$$$$
ChEBI.****
  PyMOL2.5          3D                             0

 58 60  0  0  0  0  0  0  0  0999 V2000
   17.6719   -2.2453   -1.8586 C   0  0  0  1  0  0  0  0  0  0  0  0
   17.1483   -2.2690   -0.9257 H   0  0  0  1  0  0  0  0  0  0  0  0
   18.0057   -0.8520   -2.1995 N   0  0  0  1  0  0  0  0  0  0  0  0
   18.8696   -3.0514   -1.7888 O   0  0  0  1  0  0  0  0  0  0  0  0
   16.8268   -2.8820   -2.9658 C   0  0  0  1  0  0  0  0  0  0  0  0
   16.1014   -3.5538   -2.5567 H   0  0  0  1  0  0  0  0  0  0  0  0
   19.1293   -0.6013   -2.9291 C   0  0  0  1  0  0  0  0  0  0  0  0
   17.1735    0.1576   -1.7718 C   0  0  0  1  0  0  0  0  0  0  0  0
   16.3316   -0.0782   -1.2085 H   0  0  0  1  0  0  0  0  0  0  0  0
   18.8626   -4.0843   -2.7365 C   0  0  0  1  0  0  0  0  0  0  0  0
   19.8322   -4.2051   -3.1726 H   0  0  0  1  0  0  0  0  0  0  0  0
   17.8454   -3.6240   -3.7907 C   0  0  0  1  0  0  0  0  0  0  0  0
   17.4024   -4.4601   -4.2902 H   0  0  0  1  0  0  0  0  0  0  0  0
   16.1713   -1.8914   -3.7383 O   0  0  0  1  0  0  0  0  0  0  0  0
   15.5170   -1.4438   -3.1968 H   0  0  0  1  0  0  0  0  0  0  0  0
   19.3705    0.7065   -3.2185 N   0  0  0  1  0  0  0  0  0  0  0  0
   20.1766    0.9040   -3.7397 H   0  0  0  1  0  0  0  0  0  0  0  0
   19.8731   -1.4943   -3.3001 O   0  0  0  1  0  0  0  0  0  0  0  0
   17.4288    1.4366   -2.0681 C   0  0  0  1  0  0  0  0  0  0  0  0
   16.7871    2.1835   -1.7335 H   0  0  0  1  0  0  0  0  0  0  0  0
   18.4325   -5.3713   -2.1131 C   0  0  0  1  0  0  0  0  0  0  0  0
   18.3988   -6.1420   -2.8546 H   0  0  0  1  0  0  0  0  0  0  0  0
   17.4643   -5.2571   -1.6723 H   0  0  0  1  0  0  0  0  0  0  0  0
   18.4553   -2.7623   -4.7529 O   0  0  0  1  0  0  0  0  0  0  0  0
   17.9316   -2.7589   -5.5575 H   0  0  0  1  0  0  0  0  0  0  0  0
   18.5862    1.7835   -2.8467 C   0  0  0  1  0  0  0  0  0  0  0  0
   19.4018   -5.7110   -1.0927 O   0  0  0  1  0  0  0  0  0  0  0  0
   18.8546    2.9332   -3.1544 O   0  0  0  1  0  0  0  0  0  0  0  0
   19.2018   -7.0128   -0.1636 P   0  0  0  1  0  0  0  0  0  0  0  0
   19.7726   -8.0688   -1.2314 O   0  0  0  1  0  0  0  0  0  0  0  0
   20.0837   -6.9141    1.0212 O   0  0  0  0  0  0  0  0  0  0  0  0
   17.7614   -7.2529    0.0342 O   0  0  0  1  0  0  0  0  0  0  0  0
   19.0972   -8.8082   -2.5168 P   0  0  0  1  0  0  0  0  0  0  0  0
   17.8806   -8.0758   -2.9479 O   0  0  0  0  0  0  0  0  0  0  0  0
   20.1234   -9.1554   -3.5047 O   0  0  0  1  0  0  0  0  0  0  0  0
   18.6916  -10.0727   -1.6569 O   0  0  0  1  0  0  0  0  0  0  0  0
   18.0780  -11.1785   -2.3157 C   0  0  0  1  0  0  0  0  0  0  0  0
   17.0516  -11.2453   -2.0208 H   0  0  0  1  0  0  0  0  0  0  0  0
   18.8034  -12.4681   -1.9260 C   0  0  0  1  0  0  0  0  0  0  0  0
   18.6774  -12.6409   -0.8776 H   0  0  0  1  0  0  0  0  0  0  0  0
   20.1947  -12.3347   -2.2237 O   0  0  0  1  0  0  0  0  0  0  0  0
   20.6342  -13.1769   -2.0855 H   0  0  0  1  0  0  0  0  0  0  0  0
   18.2315  -13.3667   -4.1995 C   0  0  0  1  0  0  0  0  0  0  0  0
   19.2392  -13.3244   -4.5570 H   0  0  0  1  0  0  0  0  0  0  0  0
   17.5309  -14.4146   -4.8712 O   0  0  0  1  0  0  0  0  0  0  0  0
   17.9332  -14.5706   -5.7288 H   0  0  0  1  0  0  0  0  0  0  0  0
   18.2379  -13.6429   -2.6976 C   0  0  0  1  0  0  0  0  0  0  0  0
   18.8373  -14.5080   -2.5046 H   0  0  0  1  0  0  0  0  0  0  0  0
   17.5393  -12.0354   -4.4777 C   0  0  0  1  0  0  0  0  0  0  0  0
   16.5099  -12.1084   -4.1951 H   0  0  0  1  0  0  0  0  0  0  0  0
   17.6360  -11.7251   -5.9461 C   0  0  0  1  0  0  0  0  0  0  0  0
   17.1724  -12.5176   -6.4957 H   0  0  0  1  0  0  0  0  0  0  0  0
   18.6694  -11.6603   -6.2160 H   0  0  0  1  0  0  0  0  0  0  0  0
   16.9983  -10.5009   -6.2854 O   0  0  0  1  0  0  0  0  0  0  0  0
   17.5057   -9.7665   -5.9319 H   0  0  0  1  0  0  0  0  0  0  0  0
   18.1542  -10.9887   -3.7373 O   0  0  0  1  0  0  0  0  0  0  0  0
   16.8988  -13.8841   -2.2629 O   0  0  0  1  0  0  0  0  0  0  0  0
   16.8124  -14.7984   -1.9835 H   0  0  0  1  0  0  0  0  0  0  0  0
  1  2  1  0  0  0  0
  1  3  1  0  0  0  0
  1  4  1  0  0  0  0
  1  5  1  0  0  0  0
  3  7  1  0  0  0  0
  3  8  1  0  0  0  0
  4 10  1  0  0  0  0
  5  6  1  0  0  0  0
  5 12  1  0  0  0  0
  5 14  1  0  0  0  0
  7 16  1  0  0  0  0
  7 18  2  0  0  0  0
  8  9  1  0  0  0  0
  8 19  2  0  0  0  0
 10 11  1  0  0  0  0
 10 12  1  0  0  0  0
 10 21  1  0  0  0  0
 12 13  1  0  0  0  0
 12 24  1  0  0  0  0
 14 15  1  0  0  0  0
 16 17  1  0  0  0  0
 16 26  1  0  0  0  0
 19 20  1  0  0  0  0
 19 26  1  0  0  0  0
 21 22  1  0  0  0  0
 21 23  1  0  0  0  0
 21 27  1  0  0  0  0
 24 25  1  0  0  0  0
 26 28  2  0  0  0  0
 27 29  1  0  0  0  0
 29 30  1  0  0  0  0
 29 31  1  0  0  0  0
 29 32  2  0  0  0  0
 30 33  1  0  0  0  0
 33 34  1  0  0  0  0
 33 35  2  0  0  0  0
 33 36  1  0  0  0  0
 36 37  1  0  0  0  0
 37 38  1  0  0  0  0
 37 39  1  0  0  0  0
 37 56  1  0  0  0  0
 39 40  1  0  0  0  0
 39 41  1  0  0  0  0
 39 47  1  0  0  0  0
 41 42  1  0  0  0  0
 43 44  1  0  0  0  0
 43 45  1  0  0  0  0
 43 47  1  0  0  0  0
 43 49  1  0  0  0  0
 45 46  1  0  0  0  0
 47 48  1  0  0  0  0
 47 57  1  0  0  0  0
 49 50  1  0  0  0  0
 49 51  1  0  0  0  0
 49 56  1  0  0  0  0
 51 52  1  0  0  0  0
 51 53  1  0  0  0  0
 51 54  1  0  0  0  0
 54 55  1  0  0  0  0
 57 58  1  0  0  0  0
M  BCL ATM C_TeTeTeTe H_S N_TrTrTrPi2 O_Te2Te2TeTe C_TeTeTeTe H_S C_TrTrTrPi C_TrTrTrPi H_S C_TeTeTeTe H_S C_TeTeTeTe H_S O_Te2Te2TeTe H_S N_TrTrTrPi2 H_S O_Tr2Tr2TrPi C_TrTrTrPi H_S C_TeTeTeTe H_S H_S O_Te2Te2TeTe H_S C_TrTrTrPi O_Tr2TrTrPi2 O_Tr2Tr2TrPi P_TeTeTeTePi O_Tr2TrTrPi2 O_Te2Te2TeTe O_Tr2Tr2TrPi P_TeTeTeTePi O_Te2Te2TeTe O_Tr2Tr2TrPi O_Tr2TrTrPi2 C_TeTeTeTe H_S C_TeTeTeTe H_S O_Te2Te2TeTe H_S C_TeTeTeTe H_S O_Te2Te2TeTe H_S C_TeTeTeTe H_S C_TeTeTeTe H_S C_TeTeTeTe H_S H_S O_Te2Te2TeTe H_S O_Te2Te2TeTe O_Te2Te2TeTe H_S
M  BCL BND NonConjugatedSingleBond NonConjugatedSingleBond NonConjugatedSingleBondInRing NonConjugatedSingleBondInRing ConjugatedSingleBondInRing ConjugatedSingleBondInRing NonConjugatedSingleBondInRing NonConjugatedSingleBond NonConjugatedSingleBondInRing NonConjugatedSingleBond ConjugatedSingleBondInRing ConjugatedDoubleBond NonConjugatedSingleBond ConjugatedDoubleBondInRing NonConjugatedSingleBond NonConjugatedSingleBondInRing NonConjugatedSingleBond NonConjugatedSingleBond NonConjugatedSingleBond NonConjugatedSingleBond NonConjugatedSingleBond ConjugatedSingleBondInRing NonConjugatedSingleBond ConjugatedSingleBondInRing NonConjugatedSingleBond NonConjugatedSingleBond NonConjugatedSingleBond NonConjugatedSingleBond ConjugatedDoubleBond ConjugatedSingleBond ConjugatedSingleBond ConjugatedSingleBond ConjugatedDoubleBond ConjugatedSingleBond ConjugatedSingleBond ConjugatedDoubleBond ConjugatedSingleBond NonConjugatedSingleBond NonConjugatedSingleBond NonConjugatedSingleBondInRing NonConjugatedSingleBondInRing NonConjugatedSingleBond NonConjugatedSingleBond NonConjugatedSingleBondInRing NonConjugatedSingleBond NonConjugatedSingleBond NonConjugatedSingleBond NonConjugatedSingleBondInRing NonConjugatedSingleBondInRing NonConjugatedSingleBond NonConjugatedSingleBond NonConjugatedSingleBond NonConjugatedSingleBond NonConjugatedSingleBond NonConjugatedSingleBondInRing NonConjugatedSingleBond NonConjugatedSingleBond NonConjugatedSingleBond NonConjugatedSingleBond NonConjugatedSingleBond
M  BCL CHI   1   S   5   S  10   S  12   R  29   S  33   R  37   S  39   R  43   R  47   R  49   S
M  BCL DBI - Z - - -
M  END
> <ConfClashScore>
0 

> <ConfOneFourInteractionScore>
-0.972508 

> <ConfScore>
-0.126167 

> <ConfScorePBest>
0.0134505 

> <ConfTolerance>
1.56991 

$$$$
ChEBI.****
  PyMOL2.5          3D                             0

 58 60  0  0  0  0  0  0  0  0999 V2000
   12.2585   -5.3459   -4.8065 C   0  0  0  1  0  0  0  0  0  0  0  0
   11.6731   -6.2374   -4.8928 H   0  0  0  1  0  0  0  0  0  0  0  0
   11.3860   -4.2189   -4.4563 N   0  0  0  1  0  0  0  0  0  0  0  0
   13.2791   -5.5132   -3.8159 O   0  0  0  1  0  0  0  0  0  0  0  0
   12.9944   -5.0627   -6.1176 C   0  0  0  1  0  0  0  0  0  0  0  0
   13.2268   -5.9667   -6.6408 H   0  0  0  1  0  0  0  0  0  0  0  0
   11.8688   -3.2325   -3.6167 C   0  0  0  1  0  0  0  0  0  0  0  0
   10.0799   -4.1742   -4.9861 C   0  0  0  1  0  0  0  0  0  0  0  0
    9.7547   -4.9369   -5.6138 H   0  0  0  1  0  0  0  0  0  0  0  0
   14.5331   -5.0064   -4.3084 C   0  0  0  1  0  0  0  0  0  0  0  0
   14.9333   -4.2856   -3.6264 H   0  0  0  1  0  0  0  0  0  0  0  0
   14.2510   -4.3763   -5.6028 C   0  0  0  1  0  0  0  0  0  0  0  0
   15.0655   -4.5293   -6.2795 H   0  0  0  1  0  0  0  0  0  0  0  0
   12.2371   -4.2007   -6.9683 O   0  0  0  1  0  0  0  0  0  0  0  0
   11.8251   -3.5119   -6.4417 H   0  0  0  1  0  0  0  0  0  0  0  0
   10.9950   -2.2279   -3.3206 N   0  0  0  1  0  0  0  0  0  0  0  0
   11.3208   -1.5225   -2.7234 H   0  0  0  1  0  0  0  0  0  0  0  0
   13.0036   -3.2587   -3.1694 O   0  0  0  1  0  0  0  0  0  0  0  0
    9.2431   -3.1516   -4.6888 C   0  0  0  1  0  0  0  0  0  0  0  0
    8.2909   -3.1147   -5.1053 H   0  0  0  1  0  0  0  0  0  0  0  0
   15.4967   -6.1109   -4.4792 C   0  0  0  1  0  0  0  0  0  0  0  0
   16.3940   -5.7305   -4.9208 H   0  0  0  1  0  0  0  0  0  0  0  0
   15.0706   -6.8543   -5.1201 H   0  0  0  1  0  0  0  0  0  0  0  0
   14.0243   -2.9757   -5.4385 O   0  0  0  1  0  0  0  0  0  0  0  0
   14.6436   -2.4847   -5.9834 H   0  0  0  1  0  0  0  0  0  0  0  0
    9.6889   -2.1036   -3.7802 C   0  0  0  1  0  0  0  0  0  0  0  0
   15.8124   -6.7101   -3.1969 O   0  0  0  1  0  0  0  0  0  0  0  0
    8.9643   -1.1786   -3.4450 O   0  0  0  1  0  0  0  0  0  0  0  0
   16.8945   -7.9050   -3.0848 P   0  0  0  1  0  0  0  0  0  0  0  0
   16.8941   -8.2612   -1.5182 O   0  0  0  1  0  0  0  0  0  0  0  0
   16.3941   -9.0960   -3.8074 O   0  0  0  0  0  0  0  0  0  0  0  0
   18.1903   -7.3160   -3.4863 O   0  0  0  1  0  0  0  0  0  0  0  0
   17.7793   -9.2324   -0.6469 P   0  0  0  1  0  0  0  0  0  0  0  0
   18.8053   -8.4184    0.1378 O   0  0  0  0  0  0  0  0  0  0  0  0
   16.8520  -10.0244    0.2111 O   0  0  0  1  0  0  0  0  0  0  0  0
   18.6398  -10.1223   -1.6183 O   0  0  0  1  0  0  0  0  0  0  0  0
   18.0661  -11.2703   -2.2703 C   0  0  0  1  0  0  0  0  0  0  0  0
   17.0524  -11.3932   -1.9506 H   0  0  0  1  0  0  0  0  0  0  0  0
   18.8701  -12.5187   -1.9011 C   0  0  0  1  0  0  0  0  0  0  0  0
   18.7793  -12.6988   -0.8503 H   0  0  0  1  0  0  0  0  0  0  0  0
   20.2436  -12.3094   -2.2321 O   0  0  0  1  0  0  0  0  0  0  0  0
   20.7800  -12.9907   -1.8201 H   0  0  0  1  0  0  0  0  0  0  0  0
   18.2926  -13.4455   -4.1617 C   0  0  0  1  0  0  0  0  0  0  0  0
   19.2874  -13.3481   -4.5436 H   0  0  0  1  0  0  0  0  0  0  0  0
   17.6336  -14.5303   -4.8187 O   0  0  0  1  0  0  0  0  0  0  0  0
   17.5670  -14.3432   -5.7579 H   0  0  0  1  0  0  0  0  0  0  0  0
   18.3507  -13.7220   -2.6609 C   0  0  0  1  0  0  0  0  0  0  0  0
   19.0009  -14.5532   -2.4844 H   0  0  0  1  0  0  0  0  0  0  0  0
   17.5223  -12.1538   -4.4202 C   0  0  0  1  0  0  0  0  0  0  0  0
   16.5056  -12.2830   -4.1128 H   0  0  0  1  0  0  0  0  0  0  0  0
   17.5660  -11.8377   -5.8900 C   0  0  0  1  0  0  0  0  0  0  0  0
   16.9683  -12.5546   -6.4132 H   0  0  0  1  0  0  0  0  0  0  0  0
   18.5798  -11.9048   -6.2256 H   0  0  0  1  0  0  0  0  0  0  0  0
   17.0748  -10.5357   -6.1800 O   0  0  0  1  0  0  0  0  0  0  0  0
   16.1645  -10.5958   -6.4790 H   0  0  0  1  0  0  0  0  0  0  0  0
   18.0971  -11.0756   -3.6930 O   0  0  0  1  0  0  0  0  0  0  0  0
   17.0378  -14.0362   -2.1943 O   0  0  0  1  0  0  0  0  0  0  0  0
   16.3990  -13.8527   -2.8870 H   0  0  0  1  0  0  0  0  0  0  0  0
  1  2  1  0  0  0  0
  1  3  1  0  0  0  0
  1  4  1  0  0  0  0
  1  5  1  0  0  0  0
  3  7  1  0  0  0  0
  3  8  1  0  0  0  0
  4 10  1  0  0  0  0
  5  6  1  0  0  0  0
  5 12  1  0  0  0  0
  5 14  1  0  0  0  0
  7 16  1  0  0  0  0
  7 18  2  0  0  0  0
  8  9  1  0  0  0  0
  8 19  2  0  0  0  0
 10 11  1  0  0  0  0
 10 12  1  0  0  0  0
 10 21  1  0  0  0  0
 12 13  1  0  0  0  0
 12 24  1  0  0  0  0
 14 15  1  0  0  0  0
 16 17  1  0  0  0  0
 16 26  1  0  0  0  0
 19 20  1  0  0  0  0
 19 26  1  0  0  0  0
 21 22  1  0  0  0  0
 21 23  1  0  0  0  0
 21 27  1  0  0  0  0
 24 25  1  0  0  0  0
 26 28  2  0  0  0  0
 27 29  1  0  0  0  0
 29 30  1  0  0  0  0
 29 31  1  0  0  0  0
 29 32  2  0  0  0  0
 30 33  1  0  0  0  0
 33 34  1  0  0  0  0
 33 35  2  0  0  0  0
 33 36  1  0  0  0  0
 36 37  1  0  0  0  0
 37 38  1  0  0  0  0
 37 39  1  0  0  0  0
 37 56  1  0  0  0  0
 39 40  1  0  0  0  0
 39 41  1  0  0  0  0
 39 47  1  0  0  0  0
 41 42  1  0  0  0  0
 43 44  1  0  0  0  0
 43 45  1  0  0  0  0
 43 47  1  0  0  0  0
 43 49  1  0  0  0  0
 45 46  1  0  0  0  0
 47 48  1  0  0  0  0
 47 57  1  0  0  0  0
 49 50  1  0  0  0  0
 49 51  1  0  0  0  0
 49 56  1  0  0  0  0
 51 52  1  0  0  0  0
 51 53  1  0  0  0  0
 51 54  1  0  0  0  0
 54 55  1  0  0  0  0
 57 58  1  0  0  0  0
M  BCL ATM C_TeTeTeTe H_S N_TrTrTrPi2 O_Te2Te2TeTe C_TeTeTeTe H_S C_TrTrTrPi C_TrTrTrPi H_S C_TeTeTeTe H_S C_TeTeTeTe H_S O_Te2Te2TeTe H_S N_TrTrTrPi2 H_S O_Tr2Tr2TrPi C_TrTrTrPi H_S C_TeTeTeTe H_S H_S O_Te2Te2TeTe H_S C_TrTrTrPi O_Tr2TrTrPi2 O_Tr2Tr2TrPi P_TeTeTeTePi O_Tr2TrTrPi2 O_Te2Te2TeTe O_Tr2Tr2TrPi P_TeTeTeTePi O_Te2Te2TeTe O_Tr2Tr2TrPi O_Tr2TrTrPi2 C_TeTeTeTe H_S C_TeTeTeTe H_S O_Te2Te2TeTe H_S C_TeTeTeTe H_S O_Te2Te2TeTe H_S C_TeTeTeTe H_S C_TeTeTeTe H_S C_TeTeTeTe H_S H_S O_Te2Te2TeTe H_S O_Te2Te2TeTe O_Te2Te2TeTe H_S
M  BCL BND NonConjugatedSingleBond NonConjugatedSingleBond NonConjugatedSingleBondInRing NonConjugatedSingleBondInRing ConjugatedSingleBondInRing ConjugatedSingleBondInRing NonConjugatedSingleBondInRing NonConjugatedSingleBond NonConjugatedSingleBondInRing NonConjugatedSingleBond ConjugatedSingleBondInRing ConjugatedDoubleBond NonConjugatedSingleBond ConjugatedDoubleBondInRing NonConjugatedSingleBond NonConjugatedSingleBondInRing NonConjugatedSingleBond NonConjugatedSingleBond NonConjugatedSingleBond NonConjugatedSingleBond NonConjugatedSingleBond ConjugatedSingleBondInRing NonConjugatedSingleBond ConjugatedSingleBondInRing NonConjugatedSingleBond NonConjugatedSingleBond NonConjugatedSingleBond NonConjugatedSingleBond ConjugatedDoubleBond ConjugatedSingleBond ConjugatedSingleBond ConjugatedSingleBond ConjugatedDoubleBond ConjugatedSingleBond ConjugatedSingleBond ConjugatedDoubleBond ConjugatedSingleBond NonConjugatedSingleBond NonConjugatedSingleBond NonConjugatedSingleBondInRing NonConjugatedSingleBondInRing NonConjugatedSingleBond NonConjugatedSingleBond NonConjugatedSingleBondInRing NonConjugatedSingleBond NonConjugatedSingleBond NonConjugatedSingleBond NonConjugatedSingleBondInRing NonConjugatedSingleBondInRing NonConjugatedSingleBond NonConjugatedSingleBond NonConjugatedSingleBond NonConjugatedSingleBond NonConjugatedSingleBond NonConjugatedSingleBondInRing NonConjugatedSingleBond NonConjugatedSingleBond NonConjugatedSingleBond NonConjugatedSingleBond NonConjugatedSingleBond
M  BCL CHI   1   S   5   S  10   S  12   R  29   S  33   R  37   S  39   R  43   R  47   R  49   S
M  BCL DBI - Z - - -
M  END
> <ConfClashScore>
0.000124962 

> <ConfOneFourInteractionScore>
-0.980074 

> <ConfScore>
-0.123299 

> <ConfScorePBest>
0.0133475 

> <ConfTolerance>
1.62479 

$$$$
ChEBI.****
  PyMOL2.5          3D                             0

 58 60  0  0  0  0  0  0  0  0999 V2000
   16.7621   -3.9020   -4.2303 C   0  0  0  1  0  0  0  0  0  0  0  0
   17.5488   -4.5178   -4.6132 H   0  0  0  1  0  0  0  0  0  0  0  0
   16.6886   -2.6578   -5.0106 N   0  0  0  1  0  0  0  0  0  0  0  0
   15.5488   -4.5811   -4.3039 O   0  0  0  1  0  0  0  0  0  0  0  0
   17.0236   -3.5772   -2.7466 C   0  0  0  1  0  0  0  0  0  0  0  0
   18.0710   -3.5781   -2.5280 H   0  0  0  1  0  0  0  0  0  0  0  0
   17.8378   -1.9171   -5.1971 C   0  0  0  1  0  0  0  0  0  0  0  0
   15.4893   -2.2730   -5.5261 C   0  0  0  1  0  0  0  0  0  0  0  0
   14.6567   -2.8733   -5.3585 H   0  0  0  1  0  0  0  0  0  0  0  0
   15.1675   -5.0834   -2.9980 C   0  0  0  1  0  0  0  0  0  0  0  0
   14.2570   -4.6213   -2.6781 H   0  0  0  1  0  0  0  0  0  0  0  0
   16.3053   -4.7295   -2.0325 C   0  0  0  1  0  0  0  0  0  0  0  0
   16.9619   -5.5624   -1.8914 H   0  0  0  1  0  0  0  0  0  0  0  0
   16.4624   -2.3142   -2.3861 O   0  0  0  1  0  0  0  0  0  0  0  0
   15.5069   -2.3915   -2.3333 H   0  0  0  1  0  0  0  0  0  0  0  0
   17.6556   -0.7498   -5.9271 N   0  0  0  1  0  0  0  0  0  0  0  0
   18.4425   -0.1835   -6.0708 H   0  0  0  1  0  0  0  0  0  0  0  0
   18.9232   -2.2592   -4.7575 O   0  0  0  1  0  0  0  0  0  0  0  0
   15.3398   -1.1420   -6.2465 C   0  0  0  1  0  0  0  0  0  0  0  0
   14.4140   -0.8735   -6.6367 H   0  0  0  1  0  0  0  0  0  0  0  0
   14.9828   -6.5642   -3.0520 C   0  0  0  1  0  0  0  0  0  0  0  0
   14.1008   -6.8013   -3.6095 H   0  0  0  1  0  0  0  0  0  0  0  0
   14.8950   -6.9569   -2.0606 H   0  0  0  1  0  0  0  0  0  0  0  0
   15.7917   -4.3078   -0.7681 O   0  0  0  1  0  0  0  0  0  0  0  0
   16.5208   -4.0962   -0.1805 H   0  0  0  1  0  0  0  0  0  0  0  0
   16.4871   -0.3287   -6.4556 C   0  0  0  1  0  0  0  0  0  0  0  0
   16.1472   -7.1297   -3.7059 O   0  0  0  1  0  0  0  0  0  0  0  0
   16.4178    0.7131   -7.0904 O   0  0  0  1  0  0  0  0  0  0  0  0
   16.7704   -8.5710   -3.3130 P   0  0  0  1  0  0  0  0  0  0  0  0
   17.0133   -8.3303   -1.7464 O   0  0  0  1  0  0  0  0  0  0  0  0
   15.7298   -9.6183   -3.3645 O   0  0  0  0  0  0  0  0  0  0  0  0
   18.0192   -8.7670   -4.0857 O   0  0  0  1  0  0  0  0  0  0  0  0
   17.7939   -9.1847   -0.7024 P   0  0  0  1  0  0  0  0  0  0  0  0
   18.7270   -8.4546    0.1801 O   0  0  0  0  0  0  0  0  0  0  0  0
   16.7354   -9.8740    0.0885 O   0  0  0  1  0  0  0  0  0  0  0  0
   18.6369  -10.2287   -1.5243 O   0  0  0  1  0  0  0  0  0  0  0  0
   18.0548  -11.2993   -2.2423 C   0  0  0  1  0  0  0  0  0  0  0  0
   17.0268  -11.3996   -1.9629 H   0  0  0  1  0  0  0  0  0  0  0  0
   18.7992  -12.5952   -1.9140 C   0  0  0  1  0  0  0  0  0  0  0  0
   18.6655  -12.8261   -0.8779 H   0  0  0  1  0  0  0  0  0  0  0  0
   20.1902  -12.4218   -2.1883 O   0  0  0  1  0  0  0  0  0  0  0  0
   20.5494  -13.2355   -2.5497 H   0  0  0  1  0  0  0  0  0  0  0  0
   18.2670  -13.3801   -4.2386 C   0  0  0  1  0  0  0  0  0  0  0  0
   19.2773  -13.3012   -4.5819 H   0  0  0  1  0  0  0  0  0  0  0  0
   17.5922  -14.4025   -4.9733 O   0  0  0  1  0  0  0  0  0  0  0  0
   17.8910  -14.3919   -5.8855 H   0  0  0  1  0  0  0  0  0  0  0  0
   18.2628  -13.7364   -2.7536 C   0  0  0  1  0  0  0  0  0  0  0  0
   18.8756  -14.6001   -2.6005 H   0  0  0  1  0  0  0  0  0  0  0  0
   17.5538  -12.0480   -4.4529 C   0  0  0  1  0  0  0  0  0  0  0  0
   16.5230  -12.1540   -4.1862 H   0  0  0  1  0  0  0  0  0  0  0  0
   17.6601  -11.6578   -5.9014 C   0  0  0  1  0  0  0  0  0  0  0  0
   17.1573  -12.3940   -6.4931 H   0  0  0  1  0  0  0  0  0  0  0  0
   18.6944  -11.6263   -6.1736 H   0  0  0  1  0  0  0  0  0  0  0  0
   17.0843  -10.3960   -6.1633 O   0  0  0  1  0  0  0  0  0  0  0  0
   16.9476   -9.9282   -5.3362 H   0  0  0  1  0  0  0  0  0  0  0  0
   18.1422  -11.0321   -3.6507 O   0  0  0  1  0  0  0  0  0  0  0  0
   16.9239  -14.0238   -2.3476 O   0  0  0  1  0  0  0  0  0  0  0  0
   16.7998  -13.7501   -1.4358 H   0  0  0  1  0  0  0  0  0  0  0  0
  1  2  1  0  0  0  0
  1  3  1  0  0  0  0
  1  4  1  0  0  0  0
  1  5  1  0  0  0  0
  3  7  1  0  0  0  0
  3  8  1  0  0  0  0
  4 10  1  0  0  0  0
  5  6  1  0  0  0  0
  5 12  1  0  0  0  0
  5 14  1  0  0  0  0
  7 16  1  0  0  0  0
  7 18  2  0  0  0  0
  8  9  1  0  0  0  0
  8 19  2  0  0  0  0
 10 11  1  0  0  0  0
 10 12  1  0  0  0  0
 10 21  1  0  0  0  0
 12 13  1  0  0  0  0
 12 24  1  0  0  0  0
 14 15  1  0  0  0  0
 16 17  1  0  0  0  0
 16 26  1  0  0  0  0
 19 20  1  0  0  0  0
 19 26  1  0  0  0  0
 21 22  1  0  0  0  0
 21 23  1  0  0  0  0
 21 27  1  0  0  0  0
 24 25  1  0  0  0  0
 26 28  2  0  0  0  0
 27 29  1  0  0  0  0
 29 30  1  0  0  0  0
 29 31  1  0  0  0  0
 29 32  2  0  0  0  0
 30 33  1  0  0  0  0
 33 34  1  0  0  0  0
 33 35  2  0  0  0  0
 33 36  1  0  0  0  0
 36 37  1  0  0  0  0
 37 38  1  0  0  0  0
 37 39  1  0  0  0  0
 37 56  1  0  0  0  0
 39 40  1  0  0  0  0
 39 41  1  0  0  0  0
 39 47  1  0  0  0  0
 41 42  1  0  0  0  0
 43 44  1  0  0  0  0
 43 45  1  0  0  0  0
 43 47  1  0  0  0  0
 43 49  1  0  0  0  0
 45 46  1  0  0  0  0
 47 48  1  0  0  0  0
 47 57  1  0  0  0  0
 49 50  1  0  0  0  0
 49 51  1  0  0  0  0
 49 56  1  0  0  0  0
 51 52  1  0  0  0  0
 51 53  1  0  0  0  0
 51 54  1  0  0  0  0
 54 55  1  0  0  0  0
 57 58  1  0  0  0  0
M  BCL ATM C_TeTeTeTe H_S N_TrTrTrPi2 O_Te2Te2TeTe C_TeTeTeTe H_S C_TrTrTrPi C_TrTrTrPi H_S C_TeTeTeTe H_S C_TeTeTeTe H_S O_Te2Te2TeTe H_S N_TrTrTrPi2 H_S O_Tr2Tr2TrPi C_TrTrTrPi H_S C_TeTeTeTe H_S H_S O_Te2Te2TeTe H_S C_TrTrTrPi O_Tr2TrTrPi2 O_Tr2Tr2TrPi P_TeTeTeTePi O_Tr2TrTrPi2 O_Te2Te2TeTe O_Tr2Tr2TrPi P_TeTeTeTePi O_Te2Te2TeTe O_Tr2Tr2TrPi O_Tr2TrTrPi2 C_TeTeTeTe H_S C_TeTeTeTe H_S O_Te2Te2TeTe H_S C_TeTeTeTe H_S O_Te2Te2TeTe H_S C_TeTeTeTe H_S C_TeTeTeTe H_S C_TeTeTeTe H_S H_S O_Te2Te2TeTe H_S O_Te2Te2TeTe O_Te2Te2TeTe H_S
M  BCL BND NonConjugatedSingleBond NonConjugatedSingleBond NonConjugatedSingleBondInRing NonConjugatedSingleBondInRing ConjugatedSingleBondInRing ConjugatedSingleBondInRing NonConjugatedSingleBondInRing NonConjugatedSingleBond NonConjugatedSingleBondInRing NonConjugatedSingleBond ConjugatedSingleBondInRing ConjugatedDoubleBond NonConjugatedSingleBond ConjugatedDoubleBondInRing NonConjugatedSingleBond NonConjugatedSingleBondInRing NonConjugatedSingleBond NonConjugatedSingleBond NonConjugatedSingleBond NonConjugatedSingleBond NonConjugatedSingleBond ConjugatedSingleBondInRing NonConjugatedSingleBond ConjugatedSingleBondInRing NonConjugatedSingleBond NonConjugatedSingleBond NonConjugatedSingleBond NonConjugatedSingleBond ConjugatedDoubleBond ConjugatedSingleBond ConjugatedSingleBond ConjugatedSingleBond ConjugatedDoubleBond ConjugatedSingleBond ConjugatedSingleBond ConjugatedDoubleBond ConjugatedSingleBond NonConjugatedSingleBond NonConjugatedSingleBond NonConjugatedSingleBondInRing NonConjugatedSingleBondInRing NonConjugatedSingleBond NonConjugatedSingleBond NonConjugatedSingleBondInRing NonConjugatedSingleBond NonConjugatedSingleBond NonConjugatedSingleBond NonConjugatedSingleBondInRing NonConjugatedSingleBondInRing NonConjugatedSingleBond NonConjugatedSingleBond NonConjugatedSingleBond NonConjugatedSingleBond NonConjugatedSingleBond NonConjugatedSingleBondInRing NonConjugatedSingleBond NonConjugatedSingleBond NonConjugatedSingleBond NonConjugatedSingleBond NonConjugatedSingleBond
M  BCL CHI   1   S   5   S  10   S  12   R  29   S  33   R  37   S  39   R  43   R  47   R  49   S
M  BCL DBI - Z - - -
M  END
> <ConfClashScore>
0 

> <ConfOneFourInteractionScore>
-0.987753 

> <ConfScore>
-0.118696 

> <ConfScorePBest>
0.0132445 

> <ConfTolerance>
1.60014 

$$$$
ChEBI.****
  PyMOL2.5          3D                             0

 58 60  0  0  0  0  0  0  0  0999 V2000
   17.4270   -2.7215   -4.3211 C   0  0  0  1  0  0  0  0  0  0  0  0
   17.1806   -2.6501   -3.2822 H   0  0  0  1  0  0  0  0  0  0  0  0
   18.0038   -1.4413   -4.7803 N   0  0  0  1  0  0  0  0  0  0  0  0
   18.3569   -3.8220   -4.5575 O   0  0  0  1  0  0  0  0  0  0  0  0
   16.2067   -3.0820   -5.1370 C   0  0  0  1  0  0  0  0  0  0  0  0
   15.3207   -2.6674   -4.7033 H   0  0  0  1  0  0  0  0  0  0  0  0
   18.0046   -0.3621   -3.9389 C   0  0  0  1  0  0  0  0  0  0  0  0
   18.5335   -1.3517   -6.0503 C   0  0  0  1  0  0  0  0  0  0  0  0
   18.5156   -2.2017   -6.6492 H   0  0  0  1  0  0  0  0  0  0  0  0
   17.6664   -4.9764   -4.9449 C   0  0  0  1  0  0  0  0  0  0  0  0
   18.0425   -5.3269   -5.8833 H   0  0  0  1  0  0  0  0  0  0  0  0
   16.1787   -4.6153   -5.0812 C   0  0  0  1  0  0  0  0  0  0  0  0
   15.6192   -4.9603   -4.2369 H   0  0  0  1  0  0  0  0  0  0  0  0
   16.3388   -2.6226   -6.4829 O   0  0  0  1  0  0  0  0  0  0  0  0
   16.9431   -3.1964   -6.9595 H   0  0  0  1  0  0  0  0  0  0  0  0
   18.5722    0.7789   -4.4630 N   0  0  0  1  0  0  0  0  0  0  0  0
   18.5932    1.5652   -3.8785 H   0  0  0  1  0  0  0  0  0  0  0  0
   17.5388   -0.4066   -2.8122 O   0  0  0  1  0  0  0  0  0  0  0  0
   19.0716   -0.2301   -6.5594 C   0  0  0  1  0  0  0  0  0  0  0  0
   19.4453   -0.2067   -7.5297 H   0  0  0  1  0  0  0  0  0  0  0  0
   17.8370   -6.0401   -3.9108 C   0  0  0  1  0  0  0  0  0  0  0  0
   17.2847   -6.9127   -4.1909 H   0  0  0  1  0  0  0  0  0  0  0  0
   17.4889   -5.6861   -2.9629 H   0  0  0  1  0  0  0  0  0  0  0  0
   15.6235   -5.1638   -6.2774 O   0  0  0  1  0  0  0  0  0  0  0  0
   15.6877   -6.1213   -6.2509 H   0  0  0  1  0  0  0  0  0  0  0  0
   19.1141    0.9331   -5.7223 C   0  0  0  1  0  0  0  0  0  0  0  0
   19.2474   -6.3539   -3.8318 O   0  0  0  1  0  0  0  0  0  0  0  0
   19.5971    1.9885   -6.0983 O   0  0  0  1  0  0  0  0  0  0  0  0
   19.8157   -7.7613   -4.3884 P   0  0  0  1  0  0  0  0  0  0  0  0
   19.0951   -8.8723   -3.4786 O   0  0  0  1  0  0  0  0  0  0  0  0
   19.3650   -7.8368   -5.8003 O   0  0  0  0  0  0  0  0  0  0  0  0
   21.2242   -7.9237   -4.0787 O   0  0  0  1  0  0  0  0  0  0  0  0
   18.3550   -8.7940   -2.0820 P   0  0  0  1  0  0  0  0  0  0  0  0
   19.0429   -7.8553   -1.1623 O   0  0  0  0  0  0  0  0  0  0  0  0
   16.9324   -8.5806   -2.3705 O   0  0  0  1  0  0  0  0  0  0  0  0
   18.5537  -10.2602   -1.5464 O   0  0  0  1  0  0  0  0  0  0  0  0
   18.0314  -11.3613   -2.2484 C   0  0  0  1  0  0  0  0  0  0  0  0
   17.0180  -11.5282   -1.9481 H   0  0  0  1  0  0  0  0  0  0  0  0
   18.8654  -12.6053   -1.9354 C   0  0  0  1  0  0  0  0  0  0  0  0
   18.7682  -12.8431   -0.8967 H   0  0  0  1  0  0  0  0  0  0  0  0
   20.2362  -12.3418   -2.2379 O   0  0  0  1  0  0  0  0  0  0  0  0
   20.7899  -13.0048   -1.8192 H   0  0  0  1  0  0  0  0  0  0  0  0
   18.3384  -13.4265   -4.2486 C   0  0  0  1  0  0  0  0  0  0  0  0
   19.3342  -13.2822   -4.6124 H   0  0  0  1  0  0  0  0  0  0  0  0
   17.7171  -14.4917   -4.9693 O   0  0  0  1  0  0  0  0  0  0  0  0
   17.2506  -14.1354   -5.7288 H   0  0  0  1  0  0  0  0  0  0  0  0
   18.3877  -13.7803   -2.7638 C   0  0  0  1  0  0  0  0  0  0  0  0
   19.0587  -14.6019   -2.6232 H   0  0  0  1  0  0  0  0  0  0  0  0
   17.5355  -12.1442   -4.4483 C   0  0  0  1  0  0  0  0  0  0  0  0
   16.5195  -12.3169   -4.1606 H   0  0  0  1  0  0  0  0  0  0  0  0
   17.5865  -11.7503   -5.8965 C   0  0  0  1  0  0  0  0  0  0  0  0
   17.1963  -12.5465   -6.4955 H   0  0  0  1  0  0  0  0  0  0  0  0
   18.6007  -11.5564   -6.1768 H   0  0  0  1  0  0  0  0  0  0  0  0
   16.8074  -10.5792   -6.1017 O   0  0  0  1  0  0  0  0  0  0  0  0
   15.9904  -10.6462   -5.6021 H   0  0  0  1  0  0  0  0  0  0  0  0
   18.0724  -11.0909   -3.6583 O   0  0  0  1  0  0  0  0  0  0  0  0
   17.0790  -14.1541   -2.3306 O   0  0  0  1  0  0  0  0  0  0  0  0
   16.5489  -13.3653   -2.1950 H   0  0  0  1  0  0  0  0  0  0  0  0
  1  2  1  0  0  0  0
  1  3  1  0  0  0  0
  1  4  1  0  0  0  0
  1  5  1  0  0  0  0
  3  7  1  0  0  0  0
  3  8  1  0  0  0  0
  4 10  1  0  0  0  0
  5  6  1  0  0  0  0
  5 12  1  0  0  0  0
  5 14  1  0  0  0  0
  7 16  1  0  0  0  0
  7 18  2  0  0  0  0
  8  9  1  0  0  0  0
  8 19  2  0  0  0  0
 10 11  1  0  0  0  0
 10 12  1  0  0  0  0
 10 21  1  0  0  0  0
 12 13  1  0  0  0  0
 12 24  1  0  0  0  0
 14 15  1  0  0  0  0
 16 17  1  0  0  0  0
 16 26  1  0  0  0  0
 19 20  1  0  0  0  0
 19 26  1  0  0  0  0
 21 22  1  0  0  0  0
 21 23  1  0  0  0  0
 21 27  1  0  0  0  0
 24 25  1  0  0  0  0
 26 28  2  0  0  0  0
 27 29  1  0  0  0  0
 29 30  1  0  0  0  0
 29 31  1  0  0  0  0
 29 32  2  0  0  0  0
 30 33  1  0  0  0  0
 33 34  1  0  0  0  0
 33 35  2  0  0  0  0
 33 36  1  0  0  0  0
 36 37  1  0  0  0  0
 37 38  1  0  0  0  0
 37 39  1  0  0  0  0
 37 56  1  0  0  0  0
 39 40  1  0  0  0  0
 39 41  1  0  0  0  0
 39 47  1  0  0  0  0
 41 42  1  0  0  0  0
 43 44  1  0  0  0  0
 43 45  1  0  0  0  0
 43 47  1  0  0  0  0
 43 49  1  0  0  0  0
 45 46  1  0  0  0  0
 47 48  1  0  0  0  0
 47 57  1  0  0  0  0
 49 50  1  0  0  0  0
 49 51  1  0  0  0  0
 49 56  1  0  0  0  0
 51 52  1  0  0  0  0
 51 53  1  0  0  0  0
 51 54  1  0  0  0  0
 54 55  1  0  0  0  0
 57 58  1  0  0  0  0
M  BCL ATM C_TeTeTeTe H_S N_TrTrTrPi2 O_Te2Te2TeTe C_TeTeTeTe H_S C_TrTrTrPi C_TrTrTrPi H_S C_TeTeTeTe H_S C_TeTeTeTe H_S O_Te2Te2TeTe H_S N_TrTrTrPi2 H_S O_Tr2Tr2TrPi C_TrTrTrPi H_S C_TeTeTeTe H_S H_S O_Te2Te2TeTe H_S C_TrTrTrPi O_Tr2TrTrPi2 O_Tr2Tr2TrPi P_TeTeTeTePi O_Tr2TrTrPi2 O_Te2Te2TeTe O_Tr2Tr2TrPi P_TeTeTeTePi O_Te2Te2TeTe O_Tr2Tr2TrPi O_Tr2TrTrPi2 C_TeTeTeTe H_S C_TeTeTeTe H_S O_Te2Te2TeTe H_S C_TeTeTeTe H_S O_Te2Te2TeTe H_S C_TeTeTeTe H_S C_TeTeTeTe H_S C_TeTeTeTe H_S H_S O_Te2Te2TeTe H_S O_Te2Te2TeTe O_Te2Te2TeTe H_S
M  BCL BND NonConjugatedSingleBond NonConjugatedSingleBond NonConjugatedSingleBondInRing NonConjugatedSingleBondInRing ConjugatedSingleBondInRing ConjugatedSingleBondInRing NonConjugatedSingleBondInRing NonConjugatedSingleBond NonConjugatedSingleBondInRing NonConjugatedSingleBond ConjugatedSingleBondInRing ConjugatedDoubleBond NonConjugatedSingleBond ConjugatedDoubleBondInRing NonConjugatedSingleBond NonConjugatedSingleBondInRing NonConjugatedSingleBond NonConjugatedSingleBond NonConjugatedSingleBond NonConjugatedSingleBond NonConjugatedSingleBond ConjugatedSingleBondInRing NonConjugatedSingleBond ConjugatedSingleBondInRing NonConjugatedSingleBond NonConjugatedSingleBond NonConjugatedSingleBond NonConjugatedSingleBond ConjugatedDoubleBond ConjugatedSingleBond ConjugatedSingleBond ConjugatedSingleBond ConjugatedDoubleBond ConjugatedSingleBond ConjugatedSingleBond ConjugatedDoubleBond ConjugatedSingleBond NonConjugatedSingleBond NonConjugatedSingleBond NonConjugatedSingleBondInRing NonConjugatedSingleBondInRing NonConjugatedSingleBond NonConjugatedSingleBond NonConjugatedSingleBondInRing NonConjugatedSingleBond NonConjugatedSingleBond NonConjugatedSingleBond NonConjugatedSingleBondInRing NonConjugatedSingleBondInRing NonConjugatedSingleBond NonConjugatedSingleBond NonConjugatedSingleBond NonConjugatedSingleBond NonConjugatedSingleBond NonConjugatedSingleBondInRing NonConjugatedSingleBond NonConjugatedSingleBond NonConjugatedSingleBond NonConjugatedSingleBond NonConjugatedSingleBond
M  BCL CHI   1   S   5   S  10   S  12   R  29   S  33   R  37   S  39   R  43   R  47   R  49   S
M  BCL DBI - Z - - -
M  END
> <ConfClashScore>
0 

> <ConfOneFourInteractionScore>
-0.964527 

> <ConfScore>
-0.11047 

> <ConfScorePBest>
0.0131415 

> <ConfTolerance>
1.54473 

$$$$
ChEBI.****
  PyMOL2.5          3D                             0

 58 60  0  0  0  0  0  0  0  0999 V2000
   15.1182   -4.1448   -2.4348 C   0  0  0  1  0  0  0  0  0  0  0  0
   15.8653   -3.3802   -2.3904 H   0  0  0  1  0  0  0  0  0  0  0  0
   14.2642   -3.9271   -3.6064 N   0  0  0  1  0  0  0  0  0  0  0  0
   15.7234   -5.3962   -2.5142 O   0  0  0  1  0  0  0  0  0  0  0  0
   14.2655   -4.1217   -1.1512 C   0  0  0  1  0  0  0  0  0  0  0  0
   14.2267   -3.1393   -0.7288 H   0  0  0  1  0  0  0  0  0  0  0  0
   13.4608   -4.9600   -4.0522 C   0  0  0  1  0  0  0  0  0  0  0  0
   14.2865   -2.6702   -4.2454 C   0  0  0  1  0  0  0  0  0  0  0  0
   14.9058   -1.9194   -3.8788 H   0  0  0  1  0  0  0  0  0  0  0  0
   15.6759   -6.0662   -1.2290 C   0  0  0  1  0  0  0  0  0  0  0  0
   15.0896   -6.9584   -1.3012 H   0  0  0  1  0  0  0  0  0  0  0  0
   15.0294   -5.0899   -0.2387 C   0  0  0  1  0  0  0  0  0  0  0  0
   15.7728   -4.5736    0.3320 H   0  0  0  1  0  0  0  0  0  0  0  0
   12.9381   -4.5853   -1.4028 O   0  0  0  1  0  0  0  0  0  0  0  0
   12.3602   -3.8343   -1.5570 H   0  0  0  1  0  0  0  0  0  0  0  0
   12.7094   -4.6899   -5.1580 N   0  0  0  1  0  0  0  0  0  0  0  0
   12.1370   -5.4132   -5.4890 H   0  0  0  1  0  0  0  0  0  0  0  0
   13.4261   -6.0435   -3.4924 O   0  0  0  1  0  0  0  0  0  0  0  0
   13.5125   -2.4272   -5.3300 C   0  0  0  1  0  0  0  0  0  0  0  0
   13.5170   -1.4888   -5.7782 H   0  0  0  1  0  0  0  0  0  0  0  0
   17.0410   -6.4084   -0.7851 C   0  0  0  1  0  0  0  0  0  0  0  0
   17.5851   -5.5074   -0.5927 H   0  0  0  1  0  0  0  0  0  0  0  0
   17.5327   -6.9650   -1.5553 H   0  0  0  1  0  0  0  0  0  0  0  0
   14.1382   -5.7717    0.6451 O   0  0  0  1  0  0  0  0  0  0  0  0
   14.5513   -5.8664    1.5065 H   0  0  0  1  0  0  0  0  0  0  0  0
   12.6734   -3.4923   -5.8630 C   0  0  0  1  0  0  0  0  0  0  0  0
   16.9947   -7.2060    0.4252 O   0  0  0  1  0  0  0  0  0  0  0  0
   11.9862   -3.3434   -6.8600 O   0  0  0  1  0  0  0  0  0  0  0  0
   18.3307   -7.5695    1.2162 P   0  0  0  1  0  0  0  0  0  0  0  0
   19.1839   -8.6745    0.3988 O   0  0  0  1  0  0  0  0  0  0  0  0
   19.1057   -6.2199    1.3364 O   0  0  0  0  0  0  0  0  0  0  0  0
   17.8825   -8.0118    2.5791 O   0  0  0  1  0  0  0  0  0  0  0  0
   18.5936  -10.1485    0.0697 P   0  0  0  1  0  0  0  0  0  0  0  0
   19.3953  -11.2142    0.7207 O   0  0  0  0  0  0  0  0  0  0  0  0
   17.1577  -10.0635    0.3916 O   0  0  0  1  0  0  0  0  0  0  0  0
   18.8467  -10.3458   -1.4708 O   0  0  0  1  0  0  0  0  0  0  0  0
   18.1738  -11.3732   -2.1970 C   0  0  0  1  0  0  0  0  0  0  0  0
   17.1582  -11.4377   -1.8663 H   0  0  0  1  0  0  0  0  0  0  0  0
   18.8740  -12.7111   -1.9509 C   0  0  0  1  0  0  0  0  0  0  0  0
   18.7840  -12.9716   -0.9171 H   0  0  0  1  0  0  0  0  0  0  0  0
   20.2457  -12.5907   -2.2912 O   0  0  0  1  0  0  0  0  0  0  0  0
   20.7164  -12.1567   -1.5759 H   0  0  0  1  0  0  0  0  0  0  0  0
   18.1861  -13.3911   -4.2677 C   0  0  0  1  0  0  0  0  0  0  0  0
   19.1798  -13.3450   -4.6620 H   0  0  0  1  0  0  0  0  0  0  0  0
   17.4279  -14.3568   -4.9976 O   0  0  0  1  0  0  0  0  0  0  0  0
   18.0247  -14.9578   -5.4495 H   0  0  0  1  0  0  0  0  0  0  0  0
   18.2429  -13.7980   -2.7969 C   0  0  0  1  0  0  0  0  0  0  0  0
   18.8227  -14.6926   -2.7046 H   0  0  0  1  0  0  0  0  0  0  0  0
   17.5246  -12.0223   -4.4006 C   0  0  0  1  0  0  0  0  0  0  0  0
   16.5053  -12.0919   -4.0826 H   0  0  0  1  0  0  0  0  0  0  0  0
   17.5730  -11.5880   -5.8372 C   0  0  0  1  0  0  0  0  0  0  0  0
   17.2490  -12.3930   -6.4632 H   0  0  0  1  0  0  0  0  0  0  0  0
   18.5761  -11.3177   -6.0934 H   0  0  0  1  0  0  0  0  0  0  0  0
   16.7186  -10.4680   -6.0277 O   0  0  0  1  0  0  0  0  0  0  0  0
   17.0724   -9.7110   -5.5551 H   0  0  0  1  0  0  0  0  0  0  0  0
   18.1999  -11.0616   -3.5988 O   0  0  0  1  0  0  0  0  0  0  0  0
   16.9152  -14.0400   -2.3292 O   0  0  0  1  0  0  0  0  0  0  0  0
   16.2906  -13.5526   -2.8714 H   0  0  0  1  0  0  0  0  0  0  0  0
  1  2  1  0  0  0  0
  1  3  1  0  0  0  0
  1  4  1  0  0  0  0
  1  5  1  0  0  0  0
  3  7  1  0  0  0  0
  3  8  1  0  0  0  0
  4 10  1  0  0  0  0
  5  6  1  0  0  0  0
  5 12  1  0  0  0  0
  5 14  1  0  0  0  0
  7 16  1  0  0  0  0
  7 18  2  0  0  0  0
  8  9  1  0  0  0  0
  8 19  2  0  0  0  0
 10 11  1  0  0  0  0
 10 12  1  0  0  0  0
 10 21  1  0  0  0  0
 12 13  1  0  0  0  0
 12 24  1  0  0  0  0
 14 15  1  0  0  0  0
 16 17  1  0  0  0  0
 16 26  1  0  0  0  0
 19 20  1  0  0  0  0
 19 26  1  0  0  0  0
 21 22  1  0  0  0  0
 21 23  1  0  0  0  0
 21 27  1  0  0  0  0
 24 25  1  0  0  0  0
 26 28  2  0  0  0  0
 27 29  1  0  0  0  0
 29 30  1  0  0  0  0
 29 31  1  0  0  0  0
 29 32  2  0  0  0  0
 30 33  1  0  0  0  0
 33 34  1  0  0  0  0
 33 35  2  0  0  0  0
 33 36  1  0  0  0  0
 36 37  1  0  0  0  0
 37 38  1  0  0  0  0
 37 39  1  0  0  0  0
 37 56  1  0  0  0  0
 39 40  1  0  0  0  0
 39 41  1  0  0  0  0
 39 47  1  0  0  0  0
 41 42  1  0  0  0  0
 43 44  1  0  0  0  0
 43 45  1  0  0  0  0
 43 47  1  0  0  0  0
 43 49  1  0  0  0  0
 45 46  1  0  0  0  0
 47 48  1  0  0  0  0
 47 57  1  0  0  0  0
 49 50  1  0  0  0  0
 49 51  1  0  0  0  0
 49 56  1  0  0  0  0
 51 52  1  0  0  0  0
 51 53  1  0  0  0  0
 51 54  1  0  0  0  0
 54 55  1  0  0  0  0
 57 58  1  0  0  0  0
M  BCL ATM C_TeTeTeTe H_S N_TrTrTrPi2 O_Te2Te2TeTe C_TeTeTeTe H_S C_TrTrTrPi C_TrTrTrPi H_S C_TeTeTeTe H_S C_TeTeTeTe H_S O_Te2Te2TeTe H_S N_TrTrTrPi2 H_S O_Tr2Tr2TrPi C_TrTrTrPi H_S C_TeTeTeTe H_S H_S O_Te2Te2TeTe H_S C_TrTrTrPi O_Tr2TrTrPi2 O_Tr2Tr2TrPi P_TeTeTeTePi O_Tr2TrTrPi2 O_Te2Te2TeTe O_Tr2Tr2TrPi P_TeTeTeTePi O_Te2Te2TeTe O_Tr2Tr2TrPi O_Tr2TrTrPi2 C_TeTeTeTe H_S C_TeTeTeTe H_S O_Te2Te2TeTe H_S C_TeTeTeTe H_S O_Te2Te2TeTe H_S C_TeTeTeTe H_S C_TeTeTeTe H_S C_TeTeTeTe H_S H_S O_Te2Te2TeTe H_S O_Te2Te2TeTe O_Te2Te2TeTe H_S
M  BCL BND NonConjugatedSingleBond NonConjugatedSingleBond NonConjugatedSingleBondInRing NonConjugatedSingleBondInRing ConjugatedSingleBondInRing ConjugatedSingleBondInRing NonConjugatedSingleBondInRing NonConjugatedSingleBond NonConjugatedSingleBondInRing NonConjugatedSingleBond ConjugatedSingleBondInRing ConjugatedDoubleBond NonConjugatedSingleBond ConjugatedDoubleBondInRing NonConjugatedSingleBond NonConjugatedSingleBondInRing NonConjugatedSingleBond NonConjugatedSingleBond NonConjugatedSingleBond NonConjugatedSingleBond NonConjugatedSingleBond ConjugatedSingleBondInRing NonConjugatedSingleBond ConjugatedSingleBondInRing NonConjugatedSingleBond NonConjugatedSingleBond NonConjugatedSingleBond NonConjugatedSingleBond ConjugatedDoubleBond ConjugatedSingleBond ConjugatedSingleBond ConjugatedSingleBond ConjugatedDoubleBond ConjugatedSingleBond ConjugatedSingleBond ConjugatedDoubleBond ConjugatedSingleBond NonConjugatedSingleBond NonConjugatedSingleBond NonConjugatedSingleBondInRing NonConjugatedSingleBondInRing NonConjugatedSingleBond NonConjugatedSingleBond NonConjugatedSingleBondInRing NonConjugatedSingleBond NonConjugatedSingleBond NonConjugatedSingleBond NonConjugatedSingleBondInRing NonConjugatedSingleBondInRing NonConjugatedSingleBond NonConjugatedSingleBond NonConjugatedSingleBond NonConjugatedSingleBond NonConjugatedSingleBond NonConjugatedSingleBondInRing NonConjugatedSingleBond NonConjugatedSingleBond NonConjugatedSingleBond NonConjugatedSingleBond NonConjugatedSingleBond
M  BCL CHI   1   S   5   S  10   S  12   R  29   S  33   R  37   S  39   R  43   R  47   R  49   S
M  BCL DBI - Z - - -
M  END
> <ConfClashScore>
0 

> <ConfOneFourInteractionScore>
-0.975779 

> <ConfScore>
-0.105451 

> <ConfScorePBest>
0.0130385 

> <ConfTolerance>
1.68004 

$$$$
ChEBI.****
  PyMOL2.5          3D                             0

 58 60  0  0  0  0  0  0  0  0999 V2000
   24.7845   -8.1428    3.0774 C   0  0  0  1  0  0  0  0  0  0  0  0
   24.8428   -8.6452    4.0203 H   0  0  0  1  0  0  0  0  0  0  0  0
   26.0675   -7.4774    2.7948 N   0  0  0  1  0  0  0  0  0  0  0  0
   24.4667   -9.0579    2.0499 O   0  0  0  1  0  0  0  0  0  0  0  0
   23.6529   -7.1311    3.0847 C   0  0  0  1  0  0  0  0  0  0  0  0
   22.8342   -7.4703    3.6845 H   0  0  0  1  0  0  0  0  0  0  0  0
   26.5088   -7.4127    1.5069 C   0  0  0  1  0  0  0  0  0  0  0  0
   26.7847   -6.9395    3.8394 C   0  0  0  1  0  0  0  0  0  0  0  0
   26.4153   -7.0205    4.8082 H   0  0  0  1  0  0  0  0  0  0  0  0
   23.4069   -8.5270    1.2085 C   0  0  0  1  0  0  0  0  0  0  0  0
   23.6745   -8.5991    0.1750 H   0  0  0  1  0  0  0  0  0  0  0  0
   23.2710   -7.0641    1.6285 C   0  0  0  1  0  0  0  0  0  0  0  0
   22.2678   -6.7136    1.5036 H   0  0  0  1  0  0  0  0  0  0  0  0
   24.0988   -5.8601    3.5613 O   0  0  0  1  0  0  0  0  0  0  0  0
   23.3536   -5.3734    3.9212 H   0  0  0  1  0  0  0  0  0  0  0  0
   27.6951   -6.7735    1.3165 N   0  0  0  1  0  0  0  0  0  0  0  0
   28.0280   -6.7214    0.3962 H   0  0  0  1  0  0  0  0  0  0  0  0
   25.8790   -7.8980    0.5815 O   0  0  0  1  0  0  0  0  0  0  0  0
   27.9486   -6.3146    3.6298 C   0  0  0  1  0  0  0  0  0  0  0  0
   28.4745   -5.9165    4.4340 H   0  0  0  1  0  0  0  0  0  0  0  0
   22.1291   -9.2629    1.4450 C   0  0  0  1  0  0  0  0  0  0  0  0
   21.3329   -8.7928    0.9066 H   0  0  0  1  0  0  0  0  0  0  0  0
   21.8995   -9.2679    2.4900 H   0  0  0  1  0  0  0  0  0  0  0  0
   24.1639   -6.2258    0.8936 O   0  0  0  1  0  0  0  0  0  0  0  0
   23.7824   -5.3491    0.8072 H   0  0  0  1  0  0  0  0  0  0  0  0
   28.4757   -6.1905    2.2984 C   0  0  0  1  0  0  0  0  0  0  0  0
   22.3094  -10.6191    0.9736 O   0  0  0  1  0  0  0  0  0  0  0  0
   29.5268   -5.6173    2.0540 O   0  0  0  1  0  0  0  0  0  0  0  0
   21.2069  -11.7846    1.1878 P   0  0  0  1  0  0  0  0  0  0  0  0
   20.1919  -11.4036    0.0013 O   0  0  0  1  0  0  0  0  0  0  0  0
   21.7565  -13.1001    0.7906 O   0  0  0  0  0  0  0  0  0  0  0  0
   20.6279  -11.6350    2.5317 O   0  0  0  1  0  0  0  0  0  0  0  0
   18.8792  -10.4582    0.0814 P   0  0  0  1  0  0  0  0  0  0  0  0
   17.7678  -11.1897    0.7290 O   0  0  0  0  0  0  0  0  0  0  0  0
   19.3887   -9.1797    0.6226 O   0  0  0  1  0  0  0  0  0  0  0  0
   18.4826  -10.3054   -1.4301 O   0  0  0  1  0  0  0  0  0  0  0  0
   17.9991  -11.3677   -2.2072 C   0  0  0  1  0  0  0  0  0  0  0  0
   16.9660  -11.5330   -1.9830 H   0  0  0  1  0  0  0  0  0  0  0  0
   18.7968  -12.6340   -1.8890 C   0  0  0  1  0  0  0  0  0  0  0  0
   18.6268  -12.9114   -0.8697 H   0  0  0  1  0  0  0  0  0  0  0  0
   20.1877  -12.3769   -2.0876 O   0  0  0  1  0  0  0  0  0  0  0  0
   20.4699  -12.7651   -2.9190 H   0  0  0  1  0  0  0  0  0  0  0  0
   18.4197  -13.3562   -4.2637 C   0  0  0  1  0  0  0  0  0  0  0  0
   19.4394  -13.2108   -4.5535 H   0  0  0  1  0  0  0  0  0  0  0  0
   17.8372  -14.3849   -5.0678 O   0  0  0  1  0  0  0  0  0  0  0  0
   16.9644  -14.1094   -5.3577 H   0  0  0  1  0  0  0  0  0  0  0  0
   18.3643  -13.7690   -2.7945 C   0  0  0  1  0  0  0  0  0  0  0  0
   19.0155  -14.6043   -2.6421 H   0  0  0  1  0  0  0  0  0  0  0  0
   17.6458  -12.0565   -4.4653 C   0  0  0  1  0  0  0  0  0  0  0  0
   16.6108  -12.2271   -4.2541 H   0  0  0  1  0  0  0  0  0  0  0  0
   17.8004  -11.6026   -5.9021 C   0  0  0  1  0  0  0  0  0  0  0  0
   17.2502  -10.7006   -6.0710 H   0  0  0  1  0  0  0  0  0  0  0  0
   17.4568  -12.3616   -6.5735 H   0  0  0  1  0  0  0  0  0  0  0  0
   19.2092  -11.3734   -6.0803 O   0  0  0  1  0  0  0  0  0  0  0  0
   19.5624  -10.9312   -5.3049 H   0  0  0  1  0  0  0  0  0  0  0  0
   18.1387  -11.0424   -3.5991 O   0  0  0  1  0  0  0  0  0  0  0  0
   17.0253  -14.1423   -2.4659 O   0  0  0  1  0  0  0  0  0  0  0  0
   16.9008  -14.0854   -1.5158 H   0  0  0  1  0  0  0  0  0  0  0  0
  1  2  1  0  0  0  0
  1  3  1  0  0  0  0
  1  4  1  0  0  0  0
  1  5  1  0  0  0  0
  3  7  1  0  0  0  0
  3  8  1  0  0  0  0
  4 10  1  0  0  0  0
  5  6  1  0  0  0  0
  5 12  1  0  0  0  0
  5 14  1  0  0  0  0
  7 16  1  0  0  0  0
  7 18  2  0  0  0  0
  8  9  1  0  0  0  0
  8 19  2  0  0  0  0
 10 11  1  0  0  0  0
 10 12  1  0  0  0  0
 10 21  1  0  0  0  0
 12 13  1  0  0  0  0
 12 24  1  0  0  0  0
 14 15  1  0  0  0  0
 16 17  1  0  0  0  0
 16 26  1  0  0  0  0
 19 20  1  0  0  0  0
 19 26  1  0  0  0  0
 21 22  1  0  0  0  0
 21 23  1  0  0  0  0
 21 27  1  0  0  0  0
 24 25  1  0  0  0  0
 26 28  2  0  0  0  0
 27 29  1  0  0  0  0
 29 30  1  0  0  0  0
 29 31  1  0  0  0  0
 29 32  2  0  0  0  0
 30 33  1  0  0  0  0
 33 34  1  0  0  0  0
 33 35  2  0  0  0  0
 33 36  1  0  0  0  0
 36 37  1  0  0  0  0
 37 38  1  0  0  0  0
 37 39  1  0  0  0  0
 37 56  1  0  0  0  0
 39 40  1  0  0  0  0
 39 41  1  0  0  0  0
 39 47  1  0  0  0  0
 41 42  1  0  0  0  0
 43 44  1  0  0  0  0
 43 45  1  0  0  0  0
 43 47  1  0  0  0  0
 43 49  1  0  0  0  0
 45 46  1  0  0  0  0
 47 48  1  0  0  0  0
 47 57  1  0  0  0  0
 49 50  1  0  0  0  0
 49 51  1  0  0  0  0
 49 56  1  0  0  0  0
 51 52  1  0  0  0  0
 51 53  1  0  0  0  0
 51 54  1  0  0  0  0
 54 55  1  0  0  0  0
 57 58  1  0  0  0  0
M  BCL ATM C_TeTeTeTe H_S N_TrTrTrPi2 O_Te2Te2TeTe C_TeTeTeTe H_S C_TrTrTrPi C_TrTrTrPi H_S C_TeTeTeTe H_S C_TeTeTeTe H_S O_Te2Te2TeTe H_S N_TrTrTrPi2 H_S O_Tr2Tr2TrPi C_TrTrTrPi H_S C_TeTeTeTe H_S H_S O_Te2Te2TeTe H_S C_TrTrTrPi O_Tr2TrTrPi2 O_Tr2Tr2TrPi P_TeTeTeTePi O_Tr2TrTrPi2 O_Te2Te2TeTe O_Tr2Tr2TrPi P_TeTeTeTePi O_Te2Te2TeTe O_Tr2Tr2TrPi O_Tr2TrTrPi2 C_TeTeTeTe H_S C_TeTeTeTe H_S O_Te2Te2TeTe H_S C_TeTeTeTe H_S O_Te2Te2TeTe H_S C_TeTeTeTe H_S C_TeTeTeTe H_S C_TeTeTeTe H_S H_S O_Te2Te2TeTe H_S O_Te2Te2TeTe O_Te2Te2TeTe H_S
M  BCL BND NonConjugatedSingleBond NonConjugatedSingleBond NonConjugatedSingleBondInRing NonConjugatedSingleBondInRing ConjugatedSingleBondInRing ConjugatedSingleBondInRing NonConjugatedSingleBondInRing NonConjugatedSingleBond NonConjugatedSingleBondInRing NonConjugatedSingleBond ConjugatedSingleBondInRing ConjugatedDoubleBond NonConjugatedSingleBond ConjugatedDoubleBondInRing NonConjugatedSingleBond NonConjugatedSingleBondInRing NonConjugatedSingleBond NonConjugatedSingleBond NonConjugatedSingleBond NonConjugatedSingleBond NonConjugatedSingleBond ConjugatedSingleBondInRing NonConjugatedSingleBond ConjugatedSingleBondInRing NonConjugatedSingleBond NonConjugatedSingleBond NonConjugatedSingleBond NonConjugatedSingleBond ConjugatedDoubleBond ConjugatedSingleBond ConjugatedSingleBond ConjugatedSingleBond ConjugatedDoubleBond ConjugatedSingleBond ConjugatedSingleBond ConjugatedDoubleBond ConjugatedSingleBond NonConjugatedSingleBond NonConjugatedSingleBond NonConjugatedSingleBondInRing NonConjugatedSingleBondInRing NonConjugatedSingleBond NonConjugatedSingleBond NonConjugatedSingleBondInRing NonConjugatedSingleBond NonConjugatedSingleBond NonConjugatedSingleBond NonConjugatedSingleBondInRing NonConjugatedSingleBondInRing NonConjugatedSingleBond NonConjugatedSingleBond NonConjugatedSingleBond NonConjugatedSingleBond NonConjugatedSingleBond NonConjugatedSingleBondInRing NonConjugatedSingleBond NonConjugatedSingleBond NonConjugatedSingleBond NonConjugatedSingleBond NonConjugatedSingleBond
M  BCL CHI   1   S   5   S  10   S  12   R  29   S  33   R  37   S  39   R  43   R  47   R  49   S
M  BCL DBI - Z - - -
M  END
> <ConfClashScore>
0 

> <ConfOneFourInteractionScore>
-0.97566 

> <ConfScore>
-0.104063 

> <ConfScorePBest>
0.0129355 

> <ConfTolerance>
1.60368 

$$$$
ChEBI.****
  PyMOL2.5          3D                             0

 58 60  0  0  0  0  0  0  0  0999 V2000
   13.8512   -5.2597    3.3048 C   0  0  0  1  0  0  0  0  0  0  0  0
   13.8044   -4.4823    2.5711 H   0  0  0  1  0  0  0  0  0  0  0  0
   12.9422   -4.9441    4.4110 N   0  0  0  1  0  0  0  0  0  0  0  0
   13.5127   -6.5034    2.7280 O   0  0  0  1  0  0  0  0  0  0  0  0
   15.2714   -5.4219    3.8155 C   0  0  0  1  0  0  0  0  0  0  0  0
   15.9855   -5.2217    3.0442 H   0  0  0  1  0  0  0  0  0  0  0  0
   12.6483   -3.6283    4.6864 C   0  0  0  1  0  0  0  0  0  0  0  0
   12.4063   -5.9602    5.1446 C   0  0  0  1  0  0  0  0  0  0  0  0
   12.6770   -6.9381    4.9165 H   0  0  0  1  0  0  0  0  0  0  0  0
   14.4748   -7.5212    3.1172 C   0  0  0  1  0  0  0  0  0  0  0  0
   13.9738   -8.3930    3.4831 H   0  0  0  1  0  0  0  0  0  0  0  0
   15.3031   -6.8718    4.2250 C   0  0  0  1  0  0  0  0  0  0  0  0
   16.3032   -7.2519    4.2386 H   0  0  0  1  0  0  0  0  0  0  0  0
   15.5209   -4.5645    4.9303 O   0  0  0  1  0  0  0  0  0  0  0  0
   14.8970   -3.8349    4.9193 H   0  0  0  1  0  0  0  0  0  0  0  0
   11.7594   -3.4122    5.7257 N   0  0  0  1  0  0  0  0  0  0  0  0
   11.5386   -2.4834    5.9471 H   0  0  0  1  0  0  0  0  0  0  0  0
   13.1406   -2.7087    4.0538 O   0  0  0  1  0  0  0  0  0  0  0  0
   11.5502   -5.7497    6.1414 C   0  0  0  1  0  0  0  0  0  0  0  0
   11.1683   -6.5571    6.6741 H   0  0  0  1  0  0  0  0  0  0  0  0
   15.3201   -7.8838    1.9915 C   0  0  0  1  0  0  0  0  0  0  0  0
   16.1557   -8.4428    2.3580 H   0  0  0  1  0  0  0  0  0  0  0  0
   15.6681   -6.9871    1.5230 H   0  0  0  1  0  0  0  0  0  0  0  0
   14.7022   -7.0648    5.5063 O   0  0  0  1  0  0  0  0  0  0  0  0
   14.9405   -6.3368    6.0849 H   0  0  0  1  0  0  0  0  0  0  0  0
   11.1523   -4.4196    6.4842 C   0  0  0  1  0  0  0  0  0  0  0  0
   14.6278   -8.6826    1.0034 O   0  0  0  1  0  0  0  0  0  0  0  0
   10.3452   -4.1813    7.3701 O   0  0  0  1  0  0  0  0  0  0  0  0
   15.3450   -9.8923    0.2974 P   0  0  0  1  0  0  0  0  0  0  0  0
   16.7168   -9.1994   -0.2076 O   0  0  0  1  0  0  0  0  0  0  0  0
   15.7547  -10.8792    1.4185 O   0  0  0  0  0  0  0  0  0  0  0  0
   14.5791  -10.4499   -0.8216 O   0  0  0  1  0  0  0  0  0  0  0  0
   18.1664   -9.8505   -0.0761 P   0  0  0  1  0  0  0  0  0  0  0  0
   19.0367   -8.7557    0.6172 O   0  0  0  0  0  0  0  0  0  0  0  0
   17.9992  -11.0184    0.8523 O   0  0  0  1  0  0  0  0  0  0  0  0
   18.7321  -10.2240   -1.5056 O   0  0  0  1  0  0  0  0  0  0  0  0
   18.1076  -11.2924   -2.2352 C   0  0  0  1  0  0  0  0  0  0  0  0
   17.0898  -11.3928   -1.9205 H   0  0  0  1  0  0  0  0  0  0  0  0
   18.8551  -12.5991   -1.9617 C   0  0  0  1  0  0  0  0  0  0  0  0
   18.7579  -12.8512   -0.9263 H   0  0  0  1  0  0  0  0  0  0  0  0
   20.2362  -12.4280   -2.2832 O   0  0  0  1  0  0  0  0  0  0  0  0
   20.7756  -12.8784   -1.6292 H   0  0  0  1  0  0  0  0  0  0  0  0
   18.2331  -13.3318   -4.2810 C   0  0  0  1  0  0  0  0  0  0  0  0
   19.2307  -13.2514   -4.6595 H   0  0  0  1  0  0  0  0  0  0  0  0
   17.5249  -14.3352   -5.0120 O   0  0  0  1  0  0  0  0  0  0  0  0
   17.9507  -15.1859   -4.8833 H   0  0  0  1  0  0  0  0  0  0  0  0
   18.2809  -13.7194   -2.8047 C   0  0  0  1  0  0  0  0  0  0  0  0
   18.8934  -14.5895   -2.6922 H   0  0  0  1  0  0  0  0  0  0  0  0
   17.5212  -11.9915   -4.4411 C   0  0  0  1  0  0  0  0  0  0  0  0
   16.5002  -12.0972   -4.1390 H   0  0  0  1  0  0  0  0  0  0  0  0
   17.5764  -11.5753   -5.8703 C   0  0  0  1  0  0  0  0  0  0  0  0
   17.1589  -12.3621   -6.4633 H   0  0  0  1  0  0  0  0  0  0  0  0
   18.6028  -11.4331   -6.1371 H   0  0  0  1  0  0  0  0  0  0  0  0
   16.8766  -10.3850   -6.1626 O   0  0  0  1  0  0  0  0  0  0  0  0
   16.2725  -10.1837   -5.4442 H   0  0  0  1  0  0  0  0  0  0  0  0
   18.1451  -10.9961   -3.6400 O   0  0  0  1  0  0  0  0  0  0  0  0
   16.9560  -14.0077   -2.3558 O   0  0  0  1  0  0  0  0  0  0  0  0
   16.3245  -13.7374   -3.0266 H   0  0  0  1  0  0  0  0  0  0  0  0
  1  2  1  0  0  0  0
  1  3  1  0  0  0  0
  1  4  1  0  0  0  0
  1  5  1  0  0  0  0
  3  7  1  0  0  0  0
  3  8  1  0  0  0  0
  4 10  1  0  0  0  0
  5  6  1  0  0  0  0
  5 12  1  0  0  0  0
  5 14  1  0  0  0  0
  7 16  1  0  0  0  0
  7 18  2  0  0  0  0
  8  9  1  0  0  0  0
  8 19  2  0  0  0  0
 10 11  1  0  0  0  0
 10 12  1  0  0  0  0
 10 21  1  0  0  0  0
 12 13  1  0  0  0  0
 12 24  1  0  0  0  0
 14 15  1  0  0  0  0
 16 17  1  0  0  0  0
 16 26  1  0  0  0  0
 19 20  1  0  0  0  0
 19 26  1  0  0  0  0
 21 22  1  0  0  0  0
 21 23  1  0  0  0  0
 21 27  1  0  0  0  0
 24 25  1  0  0  0  0
 26 28  2  0  0  0  0
 27 29  1  0  0  0  0
 29 30  1  0  0  0  0
 29 31  1  0  0  0  0
 29 32  2  0  0  0  0
 30 33  1  0  0  0  0
 33 34  1  0  0  0  0
 33 35  2  0  0  0  0
 33 36  1  0  0  0  0
 36 37  1  0  0  0  0
 37 38  1  0  0  0  0
 37 39  1  0  0  0  0
 37 56  1  0  0  0  0
 39 40  1  0  0  0  0
 39 41  1  0  0  0  0
 39 47  1  0  0  0  0
 41 42  1  0  0  0  0
 43 44  1  0  0  0  0
 43 45  1  0  0  0  0
 43 47  1  0  0  0  0
 43 49  1  0  0  0  0
 45 46  1  0  0  0  0
 47 48  1  0  0  0  0
 47 57  1  0  0  0  0
 49 50  1  0  0  0  0
 49 51  1  0  0  0  0
 49 56  1  0  0  0  0
 51 52  1  0  0  0  0
 51 53  1  0  0  0  0
 51 54  1  0  0  0  0
 54 55  1  0  0  0  0
 57 58  1  0  0  0  0
M  BCL ATM C_TeTeTeTe H_S N_TrTrTrPi2 O_Te2Te2TeTe C_TeTeTeTe H_S C_TrTrTrPi C_TrTrTrPi H_S C_TeTeTeTe H_S C_TeTeTeTe H_S O_Te2Te2TeTe H_S N_TrTrTrPi2 H_S O_Tr2Tr2TrPi C_TrTrTrPi H_S C_TeTeTeTe H_S H_S O_Te2Te2TeTe H_S C_TrTrTrPi O_Tr2TrTrPi2 O_Tr2Tr2TrPi P_TeTeTeTePi O_Tr2TrTrPi2 O_Te2Te2TeTe O_Tr2Tr2TrPi P_TeTeTeTePi O_Te2Te2TeTe O_Tr2Tr2TrPi O_Tr2TrTrPi2 C_TeTeTeTe H_S C_TeTeTeTe H_S O_Te2Te2TeTe H_S C_TeTeTeTe H_S O_Te2Te2TeTe H_S C_TeTeTeTe H_S C_TeTeTeTe H_S C_TeTeTeTe H_S H_S O_Te2Te2TeTe H_S O_Te2Te2TeTe O_Te2Te2TeTe H_S
M  BCL BND NonConjugatedSingleBond NonConjugatedSingleBond NonConjugatedSingleBondInRing NonConjugatedSingleBondInRing ConjugatedSingleBondInRing ConjugatedSingleBondInRing NonConjugatedSingleBondInRing NonConjugatedSingleBond NonConjugatedSingleBondInRing NonConjugatedSingleBond ConjugatedSingleBondInRing ConjugatedDoubleBond NonConjugatedSingleBond ConjugatedDoubleBondInRing NonConjugatedSingleBond NonConjugatedSingleBondInRing NonConjugatedSingleBond NonConjugatedSingleBond NonConjugatedSingleBond NonConjugatedSingleBond NonConjugatedSingleBond ConjugatedSingleBondInRing NonConjugatedSingleBond ConjugatedSingleBondInRing NonConjugatedSingleBond NonConjugatedSingleBond NonConjugatedSingleBond NonConjugatedSingleBond ConjugatedDoubleBond ConjugatedSingleBond ConjugatedSingleBond ConjugatedSingleBond ConjugatedDoubleBond ConjugatedSingleBond ConjugatedSingleBond ConjugatedDoubleBond ConjugatedSingleBond NonConjugatedSingleBond NonConjugatedSingleBond NonConjugatedSingleBondInRing NonConjugatedSingleBondInRing NonConjugatedSingleBond NonConjugatedSingleBond NonConjugatedSingleBondInRing NonConjugatedSingleBond NonConjugatedSingleBond NonConjugatedSingleBond NonConjugatedSingleBondInRing NonConjugatedSingleBondInRing NonConjugatedSingleBond NonConjugatedSingleBond NonConjugatedSingleBond NonConjugatedSingleBond NonConjugatedSingleBond NonConjugatedSingleBondInRing NonConjugatedSingleBond NonConjugatedSingleBond NonConjugatedSingleBond NonConjugatedSingleBond NonConjugatedSingleBond
M  BCL CHI   1   S   5   S  10   S  12   R  29   S  33   R  37   S  39   R  43   R  47   R  49   S
M  BCL DBI - Z - - -
M  END
> <ConfClashScore>
0 

> <ConfOneFourInteractionScore>
-0.966272 

> <ConfScore>
-0.102723 

> <ConfScorePBest>
0.0128325 

> <ConfTolerance>
1.59689 

$$$$
ChEBI.****
  PyMOL2.5          3D                             0

 58 60  0  0  0  0  0  0  0  0999 V2000
   20.2330   -5.6748   -0.3655 C   0  0  0  1  0  0  0  0  0  0  0  0
   20.3450   -6.7046   -0.0973 H   0  0  0  1  0  0  0  0  0  0  0  0
   21.2765   -5.3029   -1.3258 N   0  0  0  1  0  0  0  0  0  0  0  0
   18.9061   -5.4268   -0.9218 O   0  0  0  1  0  0  0  0  0  0  0  0
   20.2947   -4.7927    0.8604 C   0  0  0  1  0  0  0  0  0  0  0  0
   20.9502   -5.2076    1.5974 H   0  0  0  1  0  0  0  0  0  0  0  0
   22.5910   -5.5477   -1.0111 C   0  0  0  1  0  0  0  0  0  0  0  0
   20.9132   -4.7217   -2.5103 C   0  0  0  1  0  0  0  0  0  0  0  0
   19.9049   -4.5311   -2.6791 H   0  0  0  1  0  0  0  0  0  0  0  0
   18.0358   -4.9577    0.0691 C   0  0  0  1  0  0  0  0  0  0  0  0
   17.6152   -4.0207   -0.2307 H   0  0  0  1  0  0  0  0  0  0  0  0
   18.8449   -4.7761    1.3631 C   0  0  0  1  0  0  0  0  0  0  0  0
   18.6646   -5.5794    2.0466 H   0  0  0  1  0  0  0  0  0  0  0  0
   20.7321   -3.4762    0.5203 O   0  0  0  1  0  0  0  0  0  0  0  0
   19.9896   -2.9686    0.1848 H   0  0  0  1  0  0  0  0  0  0  0  0
   23.5205   -5.1924   -1.9803 N   0  0  0  1  0  0  0  0  0  0  0  0
   24.4675   -5.3516   -1.7845 H   0  0  0  1  0  0  0  0  0  0  0  0
   22.9212   -6.0458    0.0525 O   0  0  0  1  0  0  0  0  0  0  0  0
   21.7977   -4.3845   -3.4680 C   0  0  0  1  0  0  0  0  0  0  0  0
   21.4808   -3.9635   -4.3646 H   0  0  0  1  0  0  0  0  0  0  0  0
   16.9400   -5.9477    0.2913 C   0  0  0  1  0  0  0  0  0  0  0  0
   16.3506   -5.6555    1.1352 H   0  0  0  1  0  0  0  0  0  0  0  0
   17.3554   -6.9184    0.4646 H   0  0  0  1  0  0  0  0  0  0  0  0
   18.5334   -3.5335    1.9949 O   0  0  0  1  0  0  0  0  0  0  0  0
   17.6318   -3.2826    1.7812 H   0  0  0  1  0  0  0  0  0  0  0  0
   23.1982   -4.6241   -3.2144 C   0  0  0  1  0  0  0  0  0  0  0  0
   16.1187   -5.9686   -0.8999 O   0  0  0  1  0  0  0  0  0  0  0  0
   24.0573   -4.3442   -4.0370 O   0  0  0  1  0  0  0  0  0  0  0  0
   15.6594   -7.4302   -1.4224 P   0  0  0  1  0  0  0  0  0  0  0  0
   17.1122   -8.1297   -1.5536 O   0  0  0  1  0  0  0  0  0  0  0  0
   14.9876   -8.1827   -0.3391 O   0  0  0  0  0  0  0  0  0  0  0  0
   14.9602   -7.2655   -2.7152 O   0  0  0  1  0  0  0  0  0  0  0  0
   17.5411   -9.3501   -0.6476 P   0  0  0  1  0  0  0  0  0  0  0  0
   18.3537   -8.8507    0.5045 O   0  0  0  0  0  0  0  0  0  0  0  0
   16.3097  -10.0692   -0.2866 O   0  0  0  1  0  0  0  0  0  0  0  0
   18.5098  -10.2417   -1.5032 O   0  0  0  1  0  0  0  0  0  0  0  0
   18.0173  -11.3485   -2.2427 C   0  0  0  1  0  0  0  0  0  0  0  0
   17.0035  -11.5432   -1.9616 H   0  0  0  1  0  0  0  0  0  0  0  0
   18.8732  -12.5809   -1.9430 C   0  0  0  1  0  0  0  0  0  0  0  0
   18.7656  -12.8428   -0.9112 H   0  0  0  1  0  0  0  0  0  0  0  0
   20.2423  -12.2820   -2.2189 O   0  0  0  1  0  0  0  0  0  0  0  0
   20.8071  -12.8352   -1.6743 H   0  0  0  1  0  0  0  0  0  0  0  0
   18.3986  -13.3637   -4.2808 C   0  0  0  1  0  0  0  0  0  0  0  0
   19.3964  -13.1906   -4.6262 H   0  0  0  1  0  0  0  0  0  0  0  0
   17.8109  -14.4269   -5.0335 O   0  0  0  1  0  0  0  0  0  0  0  0
   16.8796  -14.4999   -4.8119 H   0  0  0  1  0  0  0  0  0  0  0  0
   18.4333  -13.7479   -2.8031 C   0  0  0  1  0  0  0  0  0  0  0  0
   19.1197  -14.5578   -2.6694 H   0  0  0  1  0  0  0  0  0  0  0  0
   17.5714  -12.0947   -4.4659 C   0  0  0  1  0  0  0  0  0  0  0  0
   16.5551  -12.2950   -4.1976 H   0  0  0  1  0  0  0  0  0  0  0  0
   17.6354  -11.6691   -5.9048 C   0  0  0  1  0  0  0  0  0  0  0  0
   17.4576  -12.5097   -6.5426 H   0  0  0  1  0  0  0  0  0  0  0  0
   18.5979  -11.2544   -6.1206 H   0  0  0  1  0  0  0  0  0  0  0  0
   16.6278  -10.6866   -6.1047 O   0  0  0  1  0  0  0  0  0  0  0  0
   15.7650  -11.1074   -6.1030 H   0  0  0  1  0  0  0  0  0  0  0  0
   18.0736  -11.0473   -3.6459 O   0  0  0  1  0  0  0  0  0  0  0  0
   17.1266  -14.1584   -2.3980 O   0  0  0  1  0  0  0  0  0  0  0  0
   16.4719  -13.7588   -2.9752 H   0  0  0  1  0  0  0  0  0  0  0  0
  1  2  1  0  0  0  0
  1  3  1  0  0  0  0
  1  4  1  0  0  0  0
  1  5  1  0  0  0  0
  3  7  1  0  0  0  0
  3  8  1  0  0  0  0
  4 10  1  0  0  0  0
  5  6  1  0  0  0  0
  5 12  1  0  0  0  0
  5 14  1  0  0  0  0
  7 16  1  0  0  0  0
  7 18  2  0  0  0  0
  8  9  1  0  0  0  0
  8 19  2  0  0  0  0
 10 11  1  0  0  0  0
 10 12  1  0  0  0  0
 10 21  1  0  0  0  0
 12 13  1  0  0  0  0
 12 24  1  0  0  0  0
 14 15  1  0  0  0  0
 16 17  1  0  0  0  0
 16 26  1  0  0  0  0
 19 20  1  0  0  0  0
 19 26  1  0  0  0  0
 21 22  1  0  0  0  0
 21 23  1  0  0  0  0
 21 27  1  0  0  0  0
 24 25  1  0  0  0  0
 26 28  2  0  0  0  0
 27 29  1  0  0  0  0
 29 30  1  0  0  0  0
 29 31  1  0  0  0  0
 29 32  2  0  0  0  0
 30 33  1  0  0  0  0
 33 34  1  0  0  0  0
 33 35  2  0  0  0  0
 33 36  1  0  0  0  0
 36 37  1  0  0  0  0
 37 38  1  0  0  0  0
 37 39  1  0  0  0  0
 37 56  1  0  0  0  0
 39 40  1  0  0  0  0
 39 41  1  0  0  0  0
 39 47  1  0  0  0  0
 41 42  1  0  0  0  0
 43 44  1  0  0  0  0
 43 45  1  0  0  0  0
 43 47  1  0  0  0  0
 43 49  1  0  0  0  0
 45 46  1  0  0  0  0
 47 48  1  0  0  0  0
 47 57  1  0  0  0  0
 49 50  1  0  0  0  0
 49 51  1  0  0  0  0
 49 56  1  0  0  0  0
 51 52  1  0  0  0  0
 51 53  1  0  0  0  0
 51 54  1  0  0  0  0
 54 55  1  0  0  0  0
 57 58  1  0  0  0  0
M  BCL ATM C_TeTeTeTe H_S N_TrTrTrPi2 O_Te2Te2TeTe C_TeTeTeTe H_S C_TrTrTrPi C_TrTrTrPi H_S C_TeTeTeTe H_S C_TeTeTeTe H_S O_Te2Te2TeTe H_S N_TrTrTrPi2 H_S O_Tr2Tr2TrPi C_TrTrTrPi H_S C_TeTeTeTe H_S H_S O_Te2Te2TeTe H_S C_TrTrTrPi O_Tr2TrTrPi2 O_Tr2Tr2TrPi P_TeTeTeTePi O_Tr2TrTrPi2 O_Te2Te2TeTe O_Tr2Tr2TrPi P_TeTeTeTePi O_Te2Te2TeTe O_Tr2Tr2TrPi O_Tr2TrTrPi2 C_TeTeTeTe H_S C_TeTeTeTe H_S O_Te2Te2TeTe H_S C_TeTeTeTe H_S O_Te2Te2TeTe H_S C_TeTeTeTe H_S C_TeTeTeTe H_S C_TeTeTeTe H_S H_S O_Te2Te2TeTe H_S O_Te2Te2TeTe O_Te2Te2TeTe H_S
M  BCL BND NonConjugatedSingleBond NonConjugatedSingleBond NonConjugatedSingleBondInRing NonConjugatedSingleBondInRing ConjugatedSingleBondInRing ConjugatedSingleBondInRing NonConjugatedSingleBondInRing NonConjugatedSingleBond NonConjugatedSingleBondInRing NonConjugatedSingleBond ConjugatedSingleBondInRing ConjugatedDoubleBond NonConjugatedSingleBond ConjugatedDoubleBondInRing NonConjugatedSingleBond NonConjugatedSingleBondInRing NonConjugatedSingleBond NonConjugatedSingleBond NonConjugatedSingleBond NonConjugatedSingleBond NonConjugatedSingleBond ConjugatedSingleBondInRing NonConjugatedSingleBond ConjugatedSingleBondInRing NonConjugatedSingleBond NonConjugatedSingleBond NonConjugatedSingleBond NonConjugatedSingleBond ConjugatedDoubleBond ConjugatedSingleBond ConjugatedSingleBond ConjugatedSingleBond ConjugatedDoubleBond ConjugatedSingleBond ConjugatedSingleBond ConjugatedDoubleBond ConjugatedSingleBond NonConjugatedSingleBond NonConjugatedSingleBond NonConjugatedSingleBondInRing NonConjugatedSingleBondInRing NonConjugatedSingleBond NonConjugatedSingleBond NonConjugatedSingleBondInRing NonConjugatedSingleBond NonConjugatedSingleBond NonConjugatedSingleBond NonConjugatedSingleBondInRing NonConjugatedSingleBondInRing NonConjugatedSingleBond NonConjugatedSingleBond NonConjugatedSingleBond NonConjugatedSingleBond NonConjugatedSingleBond NonConjugatedSingleBondInRing NonConjugatedSingleBond NonConjugatedSingleBond NonConjugatedSingleBond NonConjugatedSingleBond NonConjugatedSingleBond
M  BCL CHI   1   S   5   S  10   S  12   R  29   S  33   R  37   S  39   R  43   R  47   R  49   S
M  BCL DBI - Z - - -
M  END
> <ConfClashScore>
0 

> <ConfOneFourInteractionScore>
-0.968587 

> <ConfScore>
-0.101146 

> <ConfScorePBest>
0.0127295 

> <ConfTolerance>
1.64125 

$$$$
ChEBI.****
  PyMOL2.5          3D                             0

 58 60  0  0  0  0  0  0  0  0999 V2000
   16.5313   -5.1230   -6.7064 C   0  0  0  1  0  0  0  0  0  0  0  0
   15.5065   -5.1080   -7.0138 H   0  0  0  1  0  0  0  0  0  0  0  0
   17.1510   -3.8342   -7.0109 N   0  0  0  1  0  0  0  0  0  0  0  0
   16.6396   -5.4252   -5.2821 O   0  0  0  1  0  0  0  0  0  0  0  0
   17.2772   -6.2491   -7.3847 C   0  0  0  1  0  0  0  0  0  0  0  0
   16.8870   -6.4307   -8.3644 H   0  0  0  1  0  0  0  0  0  0  0  0
   17.0963   -2.8278   -6.0652 C   0  0  0  1  0  0  0  0  0  0  0  0
   17.7661   -3.6660   -8.2242 C   0  0  0  1  0  0  0  0  0  0  0  0
   17.7544   -4.4380   -8.9210 H   0  0  0  1  0  0  0  0  0  0  0  0
   16.8673   -6.7920   -5.0840 C   0  0  0  1  0  0  0  0  0  0  0  0
   17.7590   -6.9321   -4.5093 H   0  0  0  1  0  0  0  0  0  0  0  0
   17.0270   -7.4506   -6.4635 C   0  0  0  1  0  0  0  0  0  0  0  0
   16.1377   -7.9744   -6.7459 H   0  0  0  1  0  0  0  0  0  0  0  0
   18.6723   -5.9563   -7.4740 O   0  0  0  1  0  0  0  0  0  0  0  0
   19.0988   -6.1711   -6.6412 H   0  0  0  1  0  0  0  0  0  0  0  0
   17.7292   -1.6558   -6.3765 N   0  0  0  1  0  0  0  0  0  0  0  0
   17.6996   -0.9335   -5.7149 H   0  0  0  1  0  0  0  0  0  0  0  0
   16.5121   -2.9773   -5.0047 O   0  0  0  1  0  0  0  0  0  0  0  0
   18.4075   -2.4658   -8.5301 C   0  0  0  1  0  0  0  0  0  0  0  0
   18.8755   -2.3403   -9.4503 H   0  0  0  1  0  0  0  0  0  0  0  0
   15.7092   -7.3997   -4.3632 C   0  0  0  1  0  0  0  0  0  0  0  0
   15.8290   -8.4617   -4.3111 H   0  0  0  1  0  0  0  0  0  0  0  0
   14.7988   -7.1676   -4.8754 H   0  0  0  1  0  0  0  0  0  0  0  0
   18.1322   -8.3479   -6.4788 O   0  0  0  1  0  0  0  0  0  0  0  0
   17.9541   -9.0652   -7.0914 H   0  0  0  1  0  0  0  0  0  0  0  0
   18.4153   -1.4139   -7.5702 C   0  0  0  1  0  0  0  0  0  0  0  0
   15.6800   -6.8409   -3.0288 O   0  0  0  1  0  0  0  0  0  0  0  0
   18.9900   -0.3581   -7.7785 O   0  0  0  1  0  0  0  0  0  0  0  0
   15.3098   -7.6946   -1.7338 P   0  0  0  1  0  0  0  0  0  0  0  0
   16.3977   -8.8544   -1.5009 O   0  0  0  1  0  0  0  0  0  0  0  0
   15.3091   -6.6646   -0.5609 O   0  0  0  0  0  0  0  0  0  0  0  0
   13.9115   -8.1895   -1.9655 O   0  0  0  1  0  0  0  0  0  0  0  0
   17.9669   -8.8198   -1.8490 P   0  0  0  1  0  0  0  0  0  0  0  0
   18.1475   -8.6638   -3.3138 O   0  0  0  0  0  0  0  0  0  0  0  0
   18.5578   -7.8158   -0.9467 O   0  0  0  1  0  0  0  0  0  0  0  0
   18.4599  -10.2761   -1.4656 O   0  0  0  1  0  0  0  0  0  0  0  0
   17.9858  -11.3821   -2.2321 C   0  0  0  1  0  0  0  0  0  0  0  0
   16.9698  -11.5900   -1.9686 H   0  0  0  1  0  0  0  0  0  0  0  0
   18.8485  -12.6111   -1.9377 C   0  0  0  1  0  0  0  0  0  0  0  0
   18.7284  -12.8889   -0.9114 H   0  0  0  1  0  0  0  0  0  0  0  0
   20.2187  -12.2960   -2.1893 O   0  0  0  1  0  0  0  0  0  0  0  0
   20.7529  -13.0876   -2.0907 H   0  0  0  1  0  0  0  0  0  0  0  0
   18.4149  -13.3641   -4.2931 C   0  0  0  1  0  0  0  0  0  0  0  0
   19.4160  -13.1771   -4.6214 H   0  0  0  1  0  0  0  0  0  0  0  0
   17.8482  -14.4209   -5.0691 O   0  0  0  1  0  0  0  0  0  0  0  0
   16.9021  -14.2829   -5.1560 H   0  0  0  1  0  0  0  0  0  0  0  0
   18.4318  -13.7694   -2.8208 C   0  0  0  1  0  0  0  0  0  0  0  0
   19.1235  -14.5750   -2.6888 H   0  0  0  1  0  0  0  0  0  0  0  0
   17.5789  -12.1000   -4.4721 C   0  0  0  1  0  0  0  0  0  0  0  0
   16.5607  -12.3133   -4.2215 H   0  0  0  1  0  0  0  0  0  0  0  0
   17.6598  -11.6531   -5.9034 C   0  0  0  1  0  0  0  0  0  0  0  0
   17.2519  -12.4129   -6.5368 H   0  0  0  1  0  0  0  0  0  0  0  0
   18.6830  -11.4814   -6.1650 H   0  0  0  1  0  0  0  0  0  0  0  0
   16.9209  -10.4506   -6.0719 O   0  0  0  1  0  0  0  0  0  0  0  0
   16.9480   -9.9411   -5.2586 H   0  0  0  1  0  0  0  0  0  0  0  0
   18.0596  -11.0602   -3.6298 O   0  0  0  1  0  0  0  0  0  0  0  0
   17.1232  -14.1974   -2.4407 O   0  0  0  1  0  0  0  0  0  0  0  0
   16.6084  -13.4391   -2.1551 H   0  0  0  1  0  0  0  0  0  0  0  0
  1  2  1  0  0  0  0
  1  3  1  0  0  0  0
  1  4  1  0  0  0  0
  1  5  1  0  0  0  0
  3  7  1  0  0  0  0
  3  8  1  0  0  0  0
  4 10  1  0  0  0  0
  5  6  1  0  0  0  0
  5 12  1  0  0  0  0
  5 14  1  0  0  0  0
  7 16  1  0  0  0  0
  7 18  2  0  0  0  0
  8  9  1  0  0  0  0
  8 19  2  0  0  0  0
 10 11  1  0  0  0  0
 10 12  1  0  0  0  0
 10 21  1  0  0  0  0
 12 13  1  0  0  0  0
 12 24  1  0  0  0  0
 14 15  1  0  0  0  0
 16 17  1  0  0  0  0
 16 26  1  0  0  0  0
 19 20  1  0  0  0  0
 19 26  1  0  0  0  0
 21 22  1  0  0  0  0
 21 23  1  0  0  0  0
 21 27  1  0  0  0  0
 24 25  1  0  0  0  0
 26 28  2  0  0  0  0
 27 29  1  0  0  0  0
 29 30  1  0  0  0  0
 29 31  1  0  0  0  0
 29 32  2  0  0  0  0
 30 33  1  0  0  0  0
 33 34  1  0  0  0  0
 33 35  2  0  0  0  0
 33 36  1  0  0  0  0
 36 37  1  0  0  0  0
 37 38  1  0  0  0  0
 37 39  1  0  0  0  0
 37 56  1  0  0  0  0
 39 40  1  0  0  0  0
 39 41  1  0  0  0  0
 39 47  1  0  0  0  0
 41 42  1  0  0  0  0
 43 44  1  0  0  0  0
 43 45  1  0  0  0  0
 43 47  1  0  0  0  0
 43 49  1  0  0  0  0
 45 46  1  0  0  0  0
 47 48  1  0  0  0  0
 47 57  1  0  0  0  0
 49 50  1  0  0  0  0
 49 51  1  0  0  0  0
 49 56  1  0  0  0  0
 51 52  1  0  0  0  0
 51 53  1  0  0  0  0
 51 54  1  0  0  0  0
 54 55  1  0  0  0  0
 57 58  1  0  0  0  0
M  BCL ATM C_TeTeTeTe H_S N_TrTrTrPi2 O_Te2Te2TeTe C_TeTeTeTe H_S C_TrTrTrPi C_TrTrTrPi H_S C_TeTeTeTe H_S C_TeTeTeTe H_S O_Te2Te2TeTe H_S N_TrTrTrPi2 H_S O_Tr2Tr2TrPi C_TrTrTrPi H_S C_TeTeTeTe H_S H_S O_Te2Te2TeTe H_S C_TrTrTrPi O_Tr2TrTrPi2 O_Tr2Tr2TrPi P_TeTeTeTePi O_Tr2TrTrPi2 O_Te2Te2TeTe O_Tr2Tr2TrPi P_TeTeTeTePi O_Te2Te2TeTe O_Tr2Tr2TrPi O_Tr2TrTrPi2 C_TeTeTeTe H_S C_TeTeTeTe H_S O_Te2Te2TeTe H_S C_TeTeTeTe H_S O_Te2Te2TeTe H_S C_TeTeTeTe H_S C_TeTeTeTe H_S C_TeTeTeTe H_S H_S O_Te2Te2TeTe H_S O_Te2Te2TeTe O_Te2Te2TeTe H_S
M  BCL BND NonConjugatedSingleBond NonConjugatedSingleBond NonConjugatedSingleBondInRing NonConjugatedSingleBondInRing ConjugatedSingleBondInRing ConjugatedSingleBondInRing NonConjugatedSingleBondInRing NonConjugatedSingleBond NonConjugatedSingleBondInRing NonConjugatedSingleBond ConjugatedSingleBondInRing ConjugatedDoubleBond NonConjugatedSingleBond ConjugatedDoubleBondInRing NonConjugatedSingleBond NonConjugatedSingleBondInRing NonConjugatedSingleBond NonConjugatedSingleBond NonConjugatedSingleBond NonConjugatedSingleBond NonConjugatedSingleBond ConjugatedSingleBondInRing NonConjugatedSingleBond ConjugatedSingleBondInRing NonConjugatedSingleBond NonConjugatedSingleBond NonConjugatedSingleBond NonConjugatedSingleBond ConjugatedDoubleBond ConjugatedSingleBond ConjugatedSingleBond ConjugatedSingleBond ConjugatedDoubleBond ConjugatedSingleBond ConjugatedSingleBond ConjugatedDoubleBond ConjugatedSingleBond NonConjugatedSingleBond NonConjugatedSingleBond NonConjugatedSingleBondInRing NonConjugatedSingleBondInRing NonConjugatedSingleBond NonConjugatedSingleBond NonConjugatedSingleBondInRing NonConjugatedSingleBond NonConjugatedSingleBond NonConjugatedSingleBond NonConjugatedSingleBondInRing NonConjugatedSingleBondInRing NonConjugatedSingleBond NonConjugatedSingleBond NonConjugatedSingleBond NonConjugatedSingleBond NonConjugatedSingleBond NonConjugatedSingleBondInRing NonConjugatedSingleBond NonConjugatedSingleBond NonConjugatedSingleBond NonConjugatedSingleBond NonConjugatedSingleBond
M  BCL CHI   1   S   5   S  10   S  12   R  29   S  33   R  37   S  39   R  43   R  47   R  49   S
M  BCL DBI - Z - - -
M  END
> <ConfClashScore>
0 

> <ConfOneFourInteractionScore>
-0.960935 

> <ConfScore>
-0.0934455 

> <ConfScorePBest>
0.0126265 

> <ConfTolerance>
1.76695 

$$$$
ChEBI.****
  PyMOL2.5          3D                             0

 58 60  0  0  0  0  0  0  0  0999 V2000
   19.3578   -8.4622    4.8966 C   0  0  0  1  0  0  0  0  0  0  0  0
   18.5012   -7.9994    4.4530 H   0  0  0  1  0  0  0  0  0  0  0  0
   18.9647   -9.1247    6.1468 N   0  0  0  1  0  0  0  0  0  0  0  0
   19.9021   -9.4009    4.0122 O   0  0  0  1  0  0  0  0  0  0  0  0
   20.4333   -7.4025    5.1836 C   0  0  0  1  0  0  0  0  0  0  0  0
   20.0237   -6.4151    5.1372 H   0  0  0  1  0  0  0  0  0  0  0  0
   17.8403   -8.6800    6.8169 C   0  0  0  1  0  0  0  0  0  0  0  0
   19.7452  -10.1960    6.6284 C   0  0  0  1  0  0  0  0  0  0  0  0
   20.5844  -10.4997    6.0944 H   0  0  0  1  0  0  0  0  0  0  0  0
   21.3097   -9.1099    3.7557 C   0  0  0  1  0  0  0  0  0  0  0  0
   21.9395   -9.6871    4.4000 H   0  0  0  1  0  0  0  0  0  0  0  0
   21.4465   -7.6346    4.0547 C   0  0  0  1  0  0  0  0  0  0  0  0
   21.2025   -7.0461    3.1951 H   0  0  0  1  0  0  0  0  0  0  0  0
   21.0322   -7.6105    6.4636 O   0  0  0  1  0  0  0  0  0  0  0  0
   20.6290   -7.0215    7.1055 H   0  0  0  1  0  0  0  0  0  0  0  0
   17.5489   -9.3304    7.9798 N   0  0  0  1  0  0  0  0  0  0  0  0
   16.7568   -9.0245    8.4690 H   0  0  0  1  0  0  0  0  0  0  0  0
   17.1529   -7.7645    6.3952 O   0  0  0  1  0  0  0  0  0  0  0  0
   19.4171  -10.8348    7.7767 C   0  0  0  1  0  0  0  0  0  0  0  0
   19.9845  -11.6403    8.1096 H   0  0  0  1  0  0  0  0  0  0  0  0
   21.6578   -9.3954    2.3319 C   0  0  0  1  0  0  0  0  0  0  0  0
   22.6987   -9.2103    2.1671 H   0  0  0  1  0  0  0  0  0  0  0  0
   21.0773   -8.7734    1.6830 H   0  0  0  1  0  0  0  0  0  0  0  0
   22.7718   -7.3220    4.4862 O   0  0  0  1  0  0  0  0  0  0  0  0
   22.9715   -7.8108    5.2879 H   0  0  0  1  0  0  0  0  0  0  0  0
   18.2620  -10.3834    8.5413 C   0  0  0  1  0  0  0  0  0  0  0  0
   21.3586  -10.7881    2.0772 O   0  0  0  1  0  0  0  0  0  0  0  0
   17.9424  -10.8946    9.6020 O   0  0  0  1  0  0  0  0  0  0  0  0
   21.6781  -11.5080    0.6947 P   0  0  0  1  0  0  0  0  0  0  0  0
   20.7333  -10.7233   -0.3583 O   0  0  0  1  0  0  0  0  0  0  0  0
   23.0613  -11.1156    0.3380 O   0  0  0  0  0  0  0  0  0  0  0  0
   21.3232  -12.9379    0.7597 O   0  0  0  1  0  0  0  0  0  0  0  0
   19.1987  -10.3504   -0.0219 P   0  0  0  1  0  0  0  0  0  0  0  0
   18.4354  -11.4630    0.6413 O   0  0  0  0  0  0  0  0  0  0  0  0
   19.1065   -9.0841    0.6793 O   0  0  0  1  0  0  0  0  0  0  0  0
   18.5775  -10.1513   -1.4501 O   0  0  0  1  0  0  0  0  0  0  0  0
   18.0331  -11.2322   -2.2296 C   0  0  0  1  0  0  0  0  0  0  0  0
   16.9938  -11.3477   -2.0032 H   0  0  0  1  0  0  0  0  0  0  0  0
   18.7740  -12.5270   -1.8895 C   0  0  0  1  0  0  0  0  0  0  0  0
   18.5920  -12.7792   -0.8657 H   0  0  0  1  0  0  0  0  0  0  0  0
   20.1749  -12.3352   -2.0915 O   0  0  0  1  0  0  0  0  0  0  0  0
   20.4703  -12.8793   -2.8252 H   0  0  0  1  0  0  0  0  0  0  0  0
   18.3648  -13.2720   -4.2518 C   0  0  0  1  0  0  0  0  0  0  0  0
   19.3899  -13.1769   -4.5433 H   0  0  0  1  0  0  0  0  0  0  0  0
   17.7377  -14.2864   -5.0379 O   0  0  0  1  0  0  0  0  0  0  0  0
   17.3999  -14.9756   -4.4613 H   0  0  0  1  0  0  0  0  0  0  0  0
   18.2914  -13.6570   -2.7758 C   0  0  0  1  0  0  0  0  0  0  0  0
   18.9050  -14.5175   -2.6089 H   0  0  0  1  0  0  0  0  0  0  0  0
   17.6492  -11.9429   -4.4759 C   0  0  0  1  0  0  0  0  0  0  0  0
   16.6077  -12.0638   -4.2624 H   0  0  0  1  0  0  0  0  0  0  0  0
   17.8207  -11.5278   -5.8961 C   0  0  0  1  0  0  0  0  0  0  0  0
   17.5120  -12.3398   -6.5208 H   0  0  0  1  0  0  0  0  0  0  0  0
   18.8581  -11.3244   -6.0614 H   0  0  0  1  0  0  0  0  0  0  0  0
   17.0832  -10.3826   -6.2662 O   0  0  0  1  0  0  0  0  0  0  0  0
   16.1838  -10.4615   -5.9401 H   0  0  0  1  0  0  0  0  0  0  0  0
   18.1868  -10.9371   -3.6267 O   0  0  0  1  0  0  0  0  0  0  0  0
   16.9342  -13.9655   -2.4410 O   0  0  0  1  0  0  0  0  0  0  0  0
   16.7886  -14.9101   -2.5316 H   0  0  0  1  0  0  0  0  0  0  0  0
  1  2  1  0  0  0  0
  1  3  1  0  0  0  0
  1  4  1  0  0  0  0
  1  5  1  0  0  0  0
  3  7  1  0  0  0  0
  3  8  1  0  0  0  0
  4 10  1  0  0  0  0
  5  6  1  0  0  0  0
  5 12  1  0  0  0  0
  5 14  1  0  0  0  0
  7 16  1  0  0  0  0
  7 18  2  0  0  0  0
  8  9  1  0  0  0  0
  8 19  2  0  0  0  0
 10 11  1  0  0  0  0
 10 12  1  0  0  0  0
 10 21  1  0  0  0  0
 12 13  1  0  0  0  0
 12 24  1  0  0  0  0
 14 15  1  0  0  0  0
 16 17  1  0  0  0  0
 16 26  1  0  0  0  0
 19 20  1  0  0  0  0
 19 26  1  0  0  0  0
 21 22  1  0  0  0  0
 21 23  1  0  0  0  0
 21 27  1  0  0  0  0
 24 25  1  0  0  0  0
 26 28  2  0  0  0  0
 27 29  1  0  0  0  0
 29 30  1  0  0  0  0
 29 31  1  0  0  0  0
 29 32  2  0  0  0  0
 30 33  1  0  0  0  0
 33 34  1  0  0  0  0
 33 35  2  0  0  0  0
 33 36  1  0  0  0  0
 36 37  1  0  0  0  0
 37 38  1  0  0  0  0
 37 39  1  0  0  0  0
 37 56  1  0  0  0  0
 39 40  1  0  0  0  0
 39 41  1  0  0  0  0
 39 47  1  0  0  0  0
 41 42  1  0  0  0  0
 43 44  1  0  0  0  0
 43 45  1  0  0  0  0
 43 47  1  0  0  0  0
 43 49  1  0  0  0  0
 45 46  1  0  0  0  0
 47 48  1  0  0  0  0
 47 57  1  0  0  0  0
 49 50  1  0  0  0  0
 49 51  1  0  0  0  0
 49 56  1  0  0  0  0
 51 52  1  0  0  0  0
 51 53  1  0  0  0  0
 51 54  1  0  0  0  0
 54 55  1  0  0  0  0
 57 58  1  0  0  0  0
M  BCL ATM C_TeTeTeTe H_S N_TrTrTrPi2 O_Te2Te2TeTe C_TeTeTeTe H_S C_TrTrTrPi C_TrTrTrPi H_S C_TeTeTeTe H_S C_TeTeTeTe H_S O_Te2Te2TeTe H_S N_TrTrTrPi2 H_S O_Tr2Tr2TrPi C_TrTrTrPi H_S C_TeTeTeTe H_S H_S O_Te2Te2TeTe H_S C_TrTrTrPi O_Tr2TrTrPi2 O_Tr2Tr2TrPi P_TeTeTeTePi O_Tr2TrTrPi2 O_Te2Te2TeTe O_Tr2Tr2TrPi P_TeTeTeTePi O_Te2Te2TeTe O_Tr2Tr2TrPi O_Tr2TrTrPi2 C_TeTeTeTe H_S C_TeTeTeTe H_S O_Te2Te2TeTe H_S C_TeTeTeTe H_S O_Te2Te2TeTe H_S C_TeTeTeTe H_S C_TeTeTeTe H_S C_TeTeTeTe H_S H_S O_Te2Te2TeTe H_S O_Te2Te2TeTe O_Te2Te2TeTe H_S
M  BCL BND NonConjugatedSingleBond NonConjugatedSingleBond NonConjugatedSingleBondInRing NonConjugatedSingleBondInRing ConjugatedSingleBondInRing ConjugatedSingleBondInRing NonConjugatedSingleBondInRing NonConjugatedSingleBond NonConjugatedSingleBondInRing NonConjugatedSingleBond ConjugatedSingleBondInRing ConjugatedDoubleBond NonConjugatedSingleBond ConjugatedDoubleBondInRing NonConjugatedSingleBond NonConjugatedSingleBondInRing NonConjugatedSingleBond NonConjugatedSingleBond NonConjugatedSingleBond NonConjugatedSingleBond NonConjugatedSingleBond ConjugatedSingleBondInRing NonConjugatedSingleBond ConjugatedSingleBondInRing NonConjugatedSingleBond NonConjugatedSingleBond NonConjugatedSingleBond NonConjugatedSingleBond ConjugatedDoubleBond ConjugatedSingleBond ConjugatedSingleBond ConjugatedSingleBond ConjugatedDoubleBond ConjugatedSingleBond ConjugatedSingleBond ConjugatedDoubleBond ConjugatedSingleBond NonConjugatedSingleBond NonConjugatedSingleBond NonConjugatedSingleBondInRing NonConjugatedSingleBondInRing NonConjugatedSingleBond NonConjugatedSingleBond NonConjugatedSingleBondInRing NonConjugatedSingleBond NonConjugatedSingleBond NonConjugatedSingleBond NonConjugatedSingleBondInRing NonConjugatedSingleBondInRing NonConjugatedSingleBond NonConjugatedSingleBond NonConjugatedSingleBond NonConjugatedSingleBond NonConjugatedSingleBond NonConjugatedSingleBondInRing NonConjugatedSingleBond NonConjugatedSingleBond NonConjugatedSingleBond NonConjugatedSingleBond NonConjugatedSingleBond
M  BCL CHI   1   S   5   S  10   S  12   R  29   S  33   R  37   S  39   R  43   R  47   R  49   S
M  BCL DBI - Z - - -
M  END
> <ConfClashScore>
0 

> <ConfOneFourInteractionScore>
-0.967262 

> <ConfScore>
-0.0932375 

> <ConfScorePBest>
0.0125235 

> <ConfTolerance>
1.68246 

$$$$
ChEBI.****
  PyMOL2.5          3D                             0

 58 60  0  0  0  0  0  0  0  0999 V2000
   22.3334  -12.2491   -6.0109 C   0  0  0  1  0  0  0  0  0  0  0  0
   21.9976  -12.8423   -5.1861 H   0  0  0  1  0  0  0  0  0  0  0  0
   22.8406  -13.1281   -7.0724 N   0  0  0  1  0  0  0  0  0  0  0  0
   21.2820  -11.4426   -6.4988 O   0  0  0  1  0  0  0  0  0  0  0  0
   23.4135  -11.2812   -5.5629 C   0  0  0  1  0  0  0  0  0  0  0  0
   23.2449  -10.9505   -4.5593 H   0  0  0  1  0  0  0  0  0  0  0  0
   22.6677  -12.7398   -8.3781 C   0  0  0  1  0  0  0  0  0  0  0  0
   23.4774  -14.3225   -6.7007 C   0  0  0  1  0  0  0  0  0  0  0  0
   23.6075  -14.5805   -5.7017 H   0  0  0  1  0  0  0  0  0  0  0  0
   21.7385  -10.0759   -6.6903 C   0  0  0  1  0  0  0  0  0  0  0  0
   21.4700   -9.7218   -7.6637 H   0  0  0  1  0  0  0  0  0  0  0  0
   23.2578  -10.1480   -6.5439 C   0  0  0  1  0  0  0  0  0  0  0  0
   23.6561   -9.2352   -6.1525 H   0  0  0  1  0  0  0  0  0  0  0  0
   24.7099  -11.8731   -5.6584 O   0  0  0  1  0  0  0  0  0  0  0  0
   25.3401  -11.2167   -5.9642 H   0  0  0  1  0  0  0  0  0  0  0  0
   23.1233  -13.5948   -9.3446 N   0  0  0  1  0  0  0  0  0  0  0  0
   23.0138  -13.3361  -10.2835 H   0  0  0  1  0  0  0  0  0  0  0  0
   22.1326  -11.6812   -8.6634 O   0  0  0  1  0  0  0  0  0  0  0  0
   23.9223  -15.1371   -7.7175 C   0  0  0  1  0  0  0  0  0  0  0  0
   24.4135  -16.0193   -7.4683 H   0  0  0  1  0  0  0  0  0  0  0  0
   21.1593   -9.1861   -5.6654 C   0  0  0  1  0  0  0  0  0  0  0  0
   20.0976   -9.1466   -5.7925 H   0  0  0  1  0  0  0  0  0  0  0  0
   21.5694   -8.2043   -5.7787 H   0  0  0  1  0  0  0  0  0  0  0  0
   23.8879  -10.4474   -7.7903 O   0  0  0  1  0  0  0  0  0  0  0  0
   23.4183  -10.0049   -8.5012 H   0  0  0  1  0  0  0  0  0  0  0  0
   23.7449  -14.8346   -9.0570 C   0  0  0  1  0  0  0  0  0  0  0  0
   21.4601   -9.6753   -4.3487 O   0  0  0  1  0  0  0  0  0  0  0  0
   24.1050  -15.5956   -9.9426 O   0  0  0  1  0  0  0  0  0  0  0  0
   21.0900   -8.9449   -2.9952 P   0  0  0  1  0  0  0  0  0  0  0  0
   19.4853   -8.8681   -3.0027 O   0  0  0  1  0  0  0  0  0  0  0  0
   21.5233   -9.9077   -1.9248 O   0  0  0  0  0  0  0  0  0  0  0  0
   21.5352   -7.5409   -2.9619 O   0  0  0  1  0  0  0  0  0  0  0  0
   18.3799   -8.8291   -1.8060 P   0  0  0  1  0  0  0  0  0  0  0  0
   18.8381   -7.9394   -0.7138 O   0  0  0  0  0  0  0  0  0  0  0  0
   17.1248   -8.6387   -2.4678 O   0  0  0  1  0  0  0  0  0  0  0  0
   18.4531  -10.3378   -1.3772 O   0  0  0  1  0  0  0  0  0  0  0  0
   17.9843  -11.3965   -2.1896 C   0  0  0  1  0  0  0  0  0  0  0  0
   16.9559  -11.5897   -1.9662 H   0  0  0  1  0  0  0  0  0  0  0  0
   18.8097  -12.6543   -1.9110 C   0  0  0  1  0  0  0  0  0  0  0  0
   18.6501  -12.9643   -0.8994 H   0  0  0  1  0  0  0  0  0  0  0  0
   20.1940  -12.3624   -2.1075 O   0  0  0  1  0  0  0  0  0  0  0  0
   20.5489  -12.9368   -2.7899 H   0  0  0  1  0  0  0  0  0  0  0  0
   18.4371  -13.3159   -4.3040 C   0  0  0  1  0  0  0  0  0  0  0  0
   19.4523  -13.1409   -4.5934 H   0  0  0  1  0  0  0  0  0  0  0  0
   17.8725  -14.3333   -5.1352 O   0  0  0  1  0  0  0  0  0  0  0  0
   16.9411  -14.4370   -4.9268 H   0  0  0  1  0  0  0  0  0  0  0  0
   18.3969  -13.7717   -2.8470 C   0  0  0  1  0  0  0  0  0  0  0  0
   19.0661  -14.5971   -2.7212 H   0  0  0  1  0  0  0  0  0  0  0  0
   17.6353  -12.0275   -4.4652 C   0  0  0  1  0  0  0  0  0  0  0  0
   16.6050  -12.2258   -4.2549 H   0  0  0  1  0  0  0  0  0  0  0  0
   17.7739  -11.5300   -5.8876 C   0  0  0  1  0  0  0  0  0  0  0  0
   18.7753  -11.1827   -6.0338 H   0  0  0  1  0  0  0  0  0  0  0  0
   17.0899  -10.7207   -6.0364 H   0  0  0  1  0  0  0  0  0  0  0  0
   17.4978  -12.5426   -6.8462 O   0  0  0  1  0  0  0  0  0  0  0  0
   16.5486  -12.6182   -6.9682 H   0  0  0  1  0  0  0  0  0  0  0  0
   18.1109  -11.0285   -3.5721 O   0  0  0  1  0  0  0  0  0  0  0  0
   17.0675  -14.1823   -2.5241 O   0  0  0  1  0  0  0  0  0  0  0  0
   16.7367  -13.6524   -1.7952 H   0  0  0  1  0  0  0  0  0  0  0  0
  1  2  1  0  0  0  0
  1  3  1  0  0  0  0
  1  4  1  0  0  0  0
  1  5  1  0  0  0  0
  3  7  1  0  0  0  0
  3  8  1  0  0  0  0
  4 10  1  0  0  0  0
  5  6  1  0  0  0  0
  5 12  1  0  0  0  0
  5 14  1  0  0  0  0
  7 16  1  0  0  0  0
  7 18  2  0  0  0  0
  8  9  1  0  0  0  0
  8 19  2  0  0  0  0
 10 11  1  0  0  0  0
 10 12  1  0  0  0  0
 10 21  1  0  0  0  0
 12 13  1  0  0  0  0
 12 24  1  0  0  0  0
 14 15  1  0  0  0  0
 16 17  1  0  0  0  0
 16 26  1  0  0  0  0
 19 20  1  0  0  0  0
 19 26  1  0  0  0  0
 21 22  1  0  0  0  0
 21 23  1  0  0  0  0
 21 27  1  0  0  0  0
 24 25  1  0  0  0  0
 26 28  2  0  0  0  0
 27 29  1  0  0  0  0
 29 30  1  0  0  0  0
 29 31  1  0  0  0  0
 29 32  2  0  0  0  0
 30 33  1  0  0  0  0
 33 34  1  0  0  0  0
 33 35  2  0  0  0  0
 33 36  1  0  0  0  0
 36 37  1  0  0  0  0
 37 38  1  0  0  0  0
 37 39  1  0  0  0  0
 37 56  1  0  0  0  0
 39 40  1  0  0  0  0
 39 41  1  0  0  0  0
 39 47  1  0  0  0  0
 41 42  1  0  0  0  0
 43 44  1  0  0  0  0
 43 45  1  0  0  0  0
 43 47  1  0  0  0  0
 43 49  1  0  0  0  0
 45 46  1  0  0  0  0
 47 48  1  0  0  0  0
 47 57  1  0  0  0  0
 49 50  1  0  0  0  0
 49 51  1  0  0  0  0
 49 56  1  0  0  0  0
 51 52  1  0  0  0  0
 51 53  1  0  0  0  0
 51 54  1  0  0  0  0
 54 55  1  0  0  0  0
 57 58  1  0  0  0  0
M  BCL ATM C_TeTeTeTe H_S N_TrTrTrPi2 O_Te2Te2TeTe C_TeTeTeTe H_S C_TrTrTrPi C_TrTrTrPi H_S C_TeTeTeTe H_S C_TeTeTeTe H_S O_Te2Te2TeTe H_S N_TrTrTrPi2 H_S O_Tr2Tr2TrPi C_TrTrTrPi H_S C_TeTeTeTe H_S H_S O_Te2Te2TeTe H_S C_TrTrTrPi O_Tr2TrTrPi2 O_Tr2Tr2TrPi P_TeTeTeTePi O_Tr2TrTrPi2 O_Te2Te2TeTe O_Tr2Tr2TrPi P_TeTeTeTePi O_Te2Te2TeTe O_Tr2Tr2TrPi O_Tr2TrTrPi2 C_TeTeTeTe H_S C_TeTeTeTe H_S O_Te2Te2TeTe H_S C_TeTeTeTe H_S O_Te2Te2TeTe H_S C_TeTeTeTe H_S C_TeTeTeTe H_S C_TeTeTeTe H_S H_S O_Te2Te2TeTe H_S O_Te2Te2TeTe O_Te2Te2TeTe H_S
M  BCL BND NonConjugatedSingleBond NonConjugatedSingleBond NonConjugatedSingleBondInRing NonConjugatedSingleBondInRing ConjugatedSingleBondInRing ConjugatedSingleBondInRing NonConjugatedSingleBondInRing NonConjugatedSingleBond NonConjugatedSingleBondInRing NonConjugatedSingleBond ConjugatedSingleBondInRing ConjugatedDoubleBond NonConjugatedSingleBond ConjugatedDoubleBondInRing NonConjugatedSingleBond NonConjugatedSingleBondInRing NonConjugatedSingleBond NonConjugatedSingleBond NonConjugatedSingleBond NonConjugatedSingleBond NonConjugatedSingleBond ConjugatedSingleBondInRing NonConjugatedSingleBond ConjugatedSingleBondInRing NonConjugatedSingleBond NonConjugatedSingleBond NonConjugatedSingleBond NonConjugatedSingleBond ConjugatedDoubleBond ConjugatedSingleBond ConjugatedSingleBond ConjugatedSingleBond ConjugatedDoubleBond ConjugatedSingleBond ConjugatedSingleBond ConjugatedDoubleBond ConjugatedSingleBond NonConjugatedSingleBond NonConjugatedSingleBond NonConjugatedSingleBondInRing NonConjugatedSingleBondInRing NonConjugatedSingleBond NonConjugatedSingleBond NonConjugatedSingleBondInRing NonConjugatedSingleBond NonConjugatedSingleBond NonConjugatedSingleBond NonConjugatedSingleBondInRing NonConjugatedSingleBondInRing NonConjugatedSingleBond NonConjugatedSingleBond NonConjugatedSingleBond NonConjugatedSingleBond NonConjugatedSingleBond NonConjugatedSingleBondInRing NonConjugatedSingleBond NonConjugatedSingleBond NonConjugatedSingleBond NonConjugatedSingleBond NonConjugatedSingleBond
M  BCL CHI   1   S   5   S  10   S  12   R  29   S  33   R  37   S  39   R  43   R  47   R  49   S
M  BCL DBI - Z - - -
M  END
> <ConfClashScore>
0 

> <ConfOneFourInteractionScore>
-0.972474 

> <ConfScore>
-0.0928369 

> <ConfScorePBest>
0.0124205 

> <ConfTolerance>
1.73806 

$$$$
ChEBI.****
  PyMOL2.5          3D                             0

 58 60  0  0  0  0  0  0  0  0999 V2000
   23.2446   -4.8411   -0.8888 C   0  0  0  1  0  0  0  0  0  0  0  0
   22.5285   -4.2374   -1.4061 H   0  0  0  1  0  0  0  0  0  0  0  0
   24.5700   -4.2247   -0.9924 N   0  0  0  1  0  0  0  0  0  0  0  0
   22.8622   -5.0130    0.5097 O   0  0  0  1  0  0  0  0  0  0  0  0
   23.2627   -6.2460   -1.4463 C   0  0  0  1  0  0  0  0  0  0  0  0
   23.0457   -6.2443   -2.4941 H   0  0  0  1  0  0  0  0  0  0  0  0
   25.1750   -4.1460   -2.2232 C   0  0  0  1  0  0  0  0  0  0  0  0
   25.1698   -3.7437    0.1397 C   0  0  0  1  0  0  0  0  0  0  0  0
   24.6775   -3.8609    1.0482 H   0  0  0  1  0  0  0  0  0  0  0  0
   22.1630   -6.2128    0.6858 C   0  0  0  1  0  0  0  0  0  0  0  0
   22.6480   -6.8100    1.4296 H   0  0  0  1  0  0  0  0  0  0  0  0
   22.1553   -6.9583   -0.6582 C   0  0  0  1  0  0  0  0  0  0  0  0
   21.2091   -6.8602   -1.1481 H   0  0  0  1  0  0  0  0  0  0  0  0
   24.5290   -6.8676   -1.2226 O   0  0  0  1  0  0  0  0  0  0  0  0
   24.8760   -6.5908   -0.3713 H   0  0  0  1  0  0  0  0  0  0  0  0
   26.4177   -3.5257   -2.2469 N   0  0  0  1  0  0  0  0  0  0  0  0
   26.8769   -3.4566   -3.1099 H   0  0  0  1  0  0  0  0  0  0  0  0
   24.6538   -4.5927   -3.2318 O   0  0  0  1  0  0  0  0  0  0  0  0
   26.3663   -3.1261    0.1347 C   0  0  0  1  0  0  0  0  0  0  0  0
   26.7805   -2.7549    1.0135 H   0  0  0  1  0  0  0  0  0  0  0  0
   20.7616   -5.9247    1.1137 C   0  0  0  1  0  0  0  0  0  0  0  0
   20.2323   -5.4359    0.3227 H   0  0  0  1  0  0  0  0  0  0  0  0
   20.7670   -5.2978    1.9808 H   0  0  0  1  0  0  0  0  0  0  0  0
   22.4590   -8.3427   -0.4806 O   0  0  0  1  0  0  0  0  0  0  0  0
   21.8270   -8.7340    0.1270 H   0  0  0  1  0  0  0  0  0  0  0  0
   27.0576   -2.9939   -1.1255 C   0  0  0  1  0  0  0  0  0  0  0  0
   20.1282   -7.1884    1.4232 O   0  0  0  1  0  0  0  0  0  0  0  0
   28.1445   -2.4459   -1.2066 O   0  0  0  1  0  0  0  0  0  0  0  0
   18.8665   -7.7180    0.5583 P   0  0  0  1  0  0  0  0  0  0  0  0
   19.4973   -8.1449   -0.8706 O   0  0  0  1  0  0  0  0  0  0  0  0
   18.3147   -8.9772    1.1154 O   0  0  0  0  0  0  0  0  0  0  0  0
   17.9644   -6.5503    0.4447 O   0  0  0  1  0  0  0  0  0  0  0  0
   19.0254   -8.9786   -2.1789 P   0  0  0  1  0  0  0  0  0  0  0  0
   17.7078   -8.4820   -2.6242 O   0  0  0  0  0  0  0  0  0  0  0  0
   20.1353   -9.1213   -3.1489 O   0  0  0  1  0  0  0  0  0  0  0  0
   18.7060  -10.3557   -1.4876 O   0  0  0  1  0  0  0  0  0  0  0  0
   18.1036  -11.4293   -2.2281 C   0  0  0  1  0  0  0  0  0  0  0  0
   17.0885  -11.5545   -1.9138 H   0  0  0  1  0  0  0  0  0  0  0  0
   18.8788  -12.7227   -1.9687 C   0  0  0  1  0  0  0  0  0  0  0  0
   18.7879  -12.9876   -0.9361 H   0  0  0  1  0  0  0  0  0  0  0  0
   20.2558  -12.5190   -2.2892 O   0  0  0  1  0  0  0  0  0  0  0  0
   20.7416  -12.2999   -1.4908 H   0  0  0  1  0  0  0  0  0  0  0  0
   18.2706  -13.4440   -4.2953 C   0  0  0  1  0  0  0  0  0  0  0  0
   19.2660  -13.3385   -4.6735 H   0  0  0  1  0  0  0  0  0  0  0  0
   17.5837  -14.4538   -5.0360 O   0  0  0  1  0  0  0  0  0  0  0  0
   17.3718  -14.1210   -5.9111 H   0  0  0  1  0  0  0  0  0  0  0  0
   18.3279  -13.8459   -2.8231 C   0  0  0  1  0  0  0  0  0  0  0  0
   18.9587  -14.7041   -2.7202 H   0  0  0  1  0  0  0  0  0  0  0  0
   17.5304  -12.1174   -4.4409 C   0  0  0  1  0  0  0  0  0  0  0  0
   16.5121  -12.2479   -4.1393 H   0  0  0  1  0  0  0  0  0  0  0  0
   17.5760  -11.6810   -5.8794 C   0  0  0  1  0  0  0  0  0  0  0  0
   17.0513  -10.7533   -5.9735 H   0  0  0  1  0  0  0  0  0  0  0  0
   17.0957  -12.4255   -6.4794 H   0  0  0  1  0  0  0  0  0  0  0  0
   18.9052  -11.5031   -6.3508 O   0  0  0  1  0  0  0  0  0  0  0  0
   19.4787  -11.2769   -5.6149 H   0  0  0  1  0  0  0  0  0  0  0  0
   18.1337  -11.1175   -3.6297 O   0  0  0  1  0  0  0  0  0  0  0  0
   17.0097  -14.1669   -2.3766 O   0  0  0  1  0  0  0  0  0  0  0  0
   16.5884  -13.3778   -2.0281 H   0  0  0  1  0  0  0  0  0  0  0  0
  1  2  1  0  0  0  0
  1  3  1  0  0  0  0
  1  4  1  0  0  0  0
  1  5  1  0  0  0  0
  3  7  1  0  0  0  0
  3  8  1  0  0  0  0
  4 10  1  0  0  0  0
  5  6  1  0  0  0  0
  5 12  1  0  0  0  0
  5 14  1  0  0  0  0
  7 16  1  0  0  0  0
  7 18  2  0  0  0  0
  8  9  1  0  0  0  0
  8 19  2  0  0  0  0
 10 11  1  0  0  0  0
 10 12  1  0  0  0  0
 10 21  1  0  0  0  0
 12 13  1  0  0  0  0
 12 24  1  0  0  0  0
 14 15  1  0  0  0  0
 16 17  1  0  0  0  0
 16 26  1  0  0  0  0
 19 20  1  0  0  0  0
 19 26  1  0  0  0  0
 21 22  1  0  0  0  0
 21 23  1  0  0  0  0
 21 27  1  0  0  0  0
 24 25  1  0  0  0  0
 26 28  2  0  0  0  0
 27 29  1  0  0  0  0
 29 30  1  0  0  0  0
 29 31  1  0  0  0  0
 29 32  2  0  0  0  0
 30 33  1  0  0  0  0
 33 34  1  0  0  0  0
 33 35  2  0  0  0  0
 33 36  1  0  0  0  0
 36 37  1  0  0  0  0
 37 38  1  0  0  0  0
 37 39  1  0  0  0  0
 37 56  1  0  0  0  0
 39 40  1  0  0  0  0
 39 41  1  0  0  0  0
 39 47  1  0  0  0  0
 41 42  1  0  0  0  0
 43 44  1  0  0  0  0
 43 45  1  0  0  0  0
 43 47  1  0  0  0  0
 43 49  1  0  0  0  0
 45 46  1  0  0  0  0
 47 48  1  0  0  0  0
 47 57  1  0  0  0  0
 49 50  1  0  0  0  0
 49 51  1  0  0  0  0
 49 56  1  0  0  0  0
 51 52  1  0  0  0  0
 51 53  1  0  0  0  0
 51 54  1  0  0  0  0
 54 55  1  0  0  0  0
 57 58  1  0  0  0  0
M  BCL ATM C_TeTeTeTe H_S N_TrTrTrPi2 O_Te2Te2TeTe C_TeTeTeTe H_S C_TrTrTrPi C_TrTrTrPi H_S C_TeTeTeTe H_S C_TeTeTeTe H_S O_Te2Te2TeTe H_S N_TrTrTrPi2 H_S O_Tr2Tr2TrPi C_TrTrTrPi H_S C_TeTeTeTe H_S H_S O_Te2Te2TeTe H_S C_TrTrTrPi O_Tr2TrTrPi2 O_Tr2Tr2TrPi P_TeTeTeTePi O_Tr2TrTrPi2 O_Te2Te2TeTe O_Tr2Tr2TrPi P_TeTeTeTePi O_Te2Te2TeTe O_Tr2Tr2TrPi O_Tr2TrTrPi2 C_TeTeTeTe H_S C_TeTeTeTe H_S O_Te2Te2TeTe H_S C_TeTeTeTe H_S O_Te2Te2TeTe H_S C_TeTeTeTe H_S C_TeTeTeTe H_S C_TeTeTeTe H_S H_S O_Te2Te2TeTe H_S O_Te2Te2TeTe O_Te2Te2TeTe H_S
M  BCL BND NonConjugatedSingleBond NonConjugatedSingleBond NonConjugatedSingleBondInRing NonConjugatedSingleBondInRing ConjugatedSingleBondInRing ConjugatedSingleBondInRing NonConjugatedSingleBondInRing NonConjugatedSingleBond NonConjugatedSingleBondInRing NonConjugatedSingleBond ConjugatedSingleBondInRing ConjugatedDoubleBond NonConjugatedSingleBond ConjugatedDoubleBondInRing NonConjugatedSingleBond NonConjugatedSingleBondInRing NonConjugatedSingleBond NonConjugatedSingleBond NonConjugatedSingleBond NonConjugatedSingleBond NonConjugatedSingleBond ConjugatedSingleBondInRing NonConjugatedSingleBond ConjugatedSingleBondInRing NonConjugatedSingleBond NonConjugatedSingleBond NonConjugatedSingleBond NonConjugatedSingleBond ConjugatedDoubleBond ConjugatedSingleBond ConjugatedSingleBond ConjugatedSingleBond ConjugatedDoubleBond ConjugatedSingleBond ConjugatedSingleBond ConjugatedDoubleBond ConjugatedSingleBond NonConjugatedSingleBond NonConjugatedSingleBond NonConjugatedSingleBondInRing NonConjugatedSingleBondInRing NonConjugatedSingleBond NonConjugatedSingleBond NonConjugatedSingleBondInRing NonConjugatedSingleBond NonConjugatedSingleBond NonConjugatedSingleBond NonConjugatedSingleBondInRing NonConjugatedSingleBondInRing NonConjugatedSingleBond NonConjugatedSingleBond NonConjugatedSingleBond NonConjugatedSingleBond NonConjugatedSingleBond NonConjugatedSingleBondInRing NonConjugatedSingleBond NonConjugatedSingleBond NonConjugatedSingleBond NonConjugatedSingleBond NonConjugatedSingleBond
M  BCL CHI   1   S   5   S  10   S  12   R  29   S  33   R  37   S  39   R  43   R  47   R  49   S
M  BCL DBI - Z - - -
M  END
> <ConfClashScore>
0 

> <ConfOneFourInteractionScore>
-0.975978 

> <ConfScore>
-0.0904585 

> <ConfScorePBest>
0.0123175 

> <ConfTolerance>
1.55998 

$$$$
ChEBI.****
  PyMOL2.5          3D                             0

 58 60  0  0  0  0  0  0  0  0999 V2000
   23.8277   -4.2833    2.0779 C   0  0  0  1  0  0  0  0  0  0  0  0
   24.7224   -4.8386    1.8883 H   0  0  0  1  0  0  0  0  0  0  0  0
   24.1402   -2.8414    2.1092 N   0  0  0  1  0  0  0  0  0  0  0  0
   22.8874   -4.5439    1.0846 O   0  0  0  1  0  0  0  0  0  0  0  0
   23.2147   -4.7175    3.4236 C   0  0  0  1  0  0  0  0  0  0  0  0
   23.9679   -5.0685    4.0978 H   0  0  0  1  0  0  0  0  0  0  0  0
   24.9885   -2.3563    3.0873 C   0  0  0  1  0  0  0  0  0  0  0  0
   23.5785   -2.0100    1.1614 C   0  0  0  1  0  0  0  0  0  0  0  0
   22.9348   -2.4241    0.4573 H   0  0  0  1  0  0  0  0  0  0  0  0
   21.8739   -5.4595    1.5720 C   0  0  0  1  0  0  0  0  0  0  0  0
   20.9177   -4.9794    1.5787 H   0  0  0  1  0  0  0  0  0  0  0  0
   22.2753   -5.8536    2.9987 C   0  0  0  1  0  0  0  0  0  0  0  0
   22.7831   -6.7954    3.0082 H   0  0  0  1  0  0  0  0  0  0  0  0
   22.4910   -3.6473    4.0325 O   0  0  0  1  0  0  0  0  0  0  0  0
   22.5996   -3.6883    4.9855 H   0  0  0  1  0  0  0  0  0  0  0  0
   25.2603   -1.0019    3.0234 N   0  0  0  1  0  0  0  0  0  0  0  0
   25.8772   -0.6369    3.6917 H   0  0  0  1  0  0  0  0  0  0  0  0
   25.4657   -3.0754    3.9496 O   0  0  0  1  0  0  0  0  0  0  0  0
   23.8236   -0.6976    1.1067 C   0  0  0  1  0  0  0  0  0  0  0  0
   23.3755   -0.1068    0.3775 H   0  0  0  1  0  0  0  0  0  0  0  0
   21.8176   -6.6575    0.7123 C   0  0  0  1  0  0  0  0  0  0  0  0
   22.8016   -7.0658    0.6121 H   0  0  0  1  0  0  0  0  0  0  0  0
   21.4454   -6.3817   -0.2523 H   0  0  0  1  0  0  0  0  0  0  0  0
   21.1323   -5.9196    3.8528 O   0  0  0  1  0  0  0  0  0  0  0  0
   20.5352   -5.1970    3.6455 H   0  0  0  1  0  0  0  0  0  0  0  0
   24.7294   -0.1062    2.0852 C   0  0  0  1  0  0  0  0  0  0  0  0
   20.9447   -7.6550    1.2925 O   0  0  0  1  0  0  0  0  0  0  0  0
   25.0054    1.0841    2.0869 O   0  0  0  1  0  0  0  0  0  0  0  0
   19.4142   -7.8075    0.7946 P   0  0  0  1  0  0  0  0  0  0  0  0
   19.5360   -8.2596   -0.7423 O   0  0  0  1  0  0  0  0  0  0  0  0
   18.8332   -8.8824    1.6339 O   0  0  0  0  0  0  0  0  0  0  0  0
   18.7495   -6.5195    0.7227 O   0  0  0  1  0  0  0  0  0  0  0  0
   18.5061   -8.9719   -1.7484 P   0  0  0  1  0  0  0  0  0  0  0  0
   17.0715   -8.5818   -1.5246 O   0  0  0  0  0  0  0  0  0  0  0  0
   18.9373   -8.8351   -3.1265 O   0  0  0  1  0  0  0  0  0  0  0  0
   18.6404  -10.4892   -1.3537 O   0  0  0  1  0  0  0  0  0  0  0  0
   18.0899  -11.5114   -2.1816 C   0  0  0  1  0  0  0  0  0  0  0  0
   17.0686  -11.6795   -1.9103 H   0  0  0  1  0  0  0  0  0  0  0  0
   18.8858  -12.8040   -1.9897 C   0  0  0  1  0  0  0  0  0  0  0  0
   18.7688  -13.1441   -0.9819 H   0  0  0  1  0  0  0  0  0  0  0  0
   20.2671  -12.5498   -2.2497 O   0  0  0  1  0  0  0  0  0  0  0  0
   20.5726  -11.8342   -1.6875 H   0  0  0  1  0  0  0  0  0  0  0  0
   18.3668  -13.3688   -4.3802 C   0  0  0  1  0  0  0  0  0  0  0  0
   19.3708  -13.2162   -4.7173 H   0  0  0  1  0  0  0  0  0  0  0  0
   17.7263  -14.3366   -5.2127 O   0  0  0  1  0  0  0  0  0  0  0  0
   16.7745  -14.2729   -5.1043 H   0  0  0  1  0  0  0  0  0  0  0  0
   18.3873  -13.8740   -2.9392 C   0  0  0  1  0  0  0  0  0  0  0  0
   19.0339  -14.7243   -2.8769 H   0  0  0  1  0  0  0  0  0  0  0  0
   17.6016  -12.0505   -4.4552 C   0  0  0  1  0  0  0  0  0  0  0  0
   16.5776  -12.2230   -4.1971 H   0  0  0  1  0  0  0  0  0  0  0  0
   17.6819  -11.5120   -5.8550 C   0  0  0  1  0  0  0  0  0  0  0  0
   17.4480  -12.2844   -6.5575 H   0  0  0  1  0  0  0  0  0  0  0  0
   18.6667  -11.1404   -6.0474 H   0  0  0  1  0  0  0  0  0  0  0  0
   16.7356  -10.4566   -5.9613 O   0  0  0  1  0  0  0  0  0  0  0  0
   16.6121  -10.0491   -5.1009 H   0  0  0  1  0  0  0  0  0  0  0  0
   18.1566  -11.0993   -3.5558 O   0  0  0  1  0  0  0  0  0  0  0  0
   17.0634  -14.2530   -2.5599 O   0  0  0  1  0  0  0  0  0  0  0  0
   16.6575  -13.5416   -2.0592 H   0  0  0  1  0  0  0  0  0  0  0  0
  1  2  1  0  0  0  0
  1  3  1  0  0  0  0
  1  4  1  0  0  0  0
  1  5  1  0  0  0  0
  3  7  1  0  0  0  0
  3  8  1  0  0  0  0
  4 10  1  0  0  0  0
  5  6  1  0  0  0  0
  5 12  1  0  0  0  0
  5 14  1  0  0  0  0
  7 16  1  0  0  0  0
  7 18  2  0  0  0  0
  8  9  1  0  0  0  0
  8 19  2  0  0  0  0
 10 11  1  0  0  0  0
 10 12  1  0  0  0  0
 10 21  1  0  0  0  0
 12 13  1  0  0  0  0
 12 24  1  0  0  0  0
 14 15  1  0  0  0  0
 16 17  1  0  0  0  0
 16 26  1  0  0  0  0
 19 20  1  0  0  0  0
 19 26  1  0  0  0  0
 21 22  1  0  0  0  0
 21 23  1  0  0  0  0
 21 27  1  0  0  0  0
 24 25  1  0  0  0  0
 26 28  2  0  0  0  0
 27 29  1  0  0  0  0
 29 30  1  0  0  0  0
 29 31  1  0  0  0  0
 29 32  2  0  0  0  0
 30 33  1  0  0  0  0
 33 34  1  0  0  0  0
 33 35  2  0  0  0  0
 33 36  1  0  0  0  0
 36 37  1  0  0  0  0
 37 38  1  0  0  0  0
 37 39  1  0  0  0  0
 37 56  1  0  0  0  0
 39 40  1  0  0  0  0
 39 41  1  0  0  0  0
 39 47  1  0  0  0  0
 41 42  1  0  0  0  0
 43 44  1  0  0  0  0
 43 45  1  0  0  0  0
 43 47  1  0  0  0  0
 43 49  1  0  0  0  0
 45 46  1  0  0  0  0
 47 48  1  0  0  0  0
 47 57  1  0  0  0  0
 49 50  1  0  0  0  0
 49 51  1  0  0  0  0
 49 56  1  0  0  0  0
 51 52  1  0  0  0  0
 51 53  1  0  0  0  0
 51 54  1  0  0  0  0
 54 55  1  0  0  0  0
 57 58  1  0  0  0  0
M  BCL ATM C_TeTeTeTe H_S N_TrTrTrPi2 O_Te2Te2TeTe C_TeTeTeTe H_S C_TrTrTrPi C_TrTrTrPi H_S C_TeTeTeTe H_S C_TeTeTeTe H_S O_Te2Te2TeTe H_S N_TrTrTrPi2 H_S O_Tr2Tr2TrPi C_TrTrTrPi H_S C_TeTeTeTe H_S H_S O_Te2Te2TeTe H_S C_TrTrTrPi O_Tr2TrTrPi2 O_Tr2Tr2TrPi P_TeTeTeTePi O_Tr2TrTrPi2 O_Te2Te2TeTe O_Tr2Tr2TrPi P_TeTeTeTePi O_Te2Te2TeTe O_Tr2Tr2TrPi O_Tr2TrTrPi2 C_TeTeTeTe H_S C_TeTeTeTe H_S O_Te2Te2TeTe H_S C_TeTeTeTe H_S O_Te2Te2TeTe H_S C_TeTeTeTe H_S C_TeTeTeTe H_S C_TeTeTeTe H_S H_S O_Te2Te2TeTe H_S O_Te2Te2TeTe O_Te2Te2TeTe H_S
M  BCL BND NonConjugatedSingleBond NonConjugatedSingleBond NonConjugatedSingleBondInRing NonConjugatedSingleBondInRing ConjugatedSingleBondInRing ConjugatedSingleBondInRing NonConjugatedSingleBondInRing NonConjugatedSingleBond NonConjugatedSingleBondInRing NonConjugatedSingleBond ConjugatedSingleBondInRing ConjugatedDoubleBond NonConjugatedSingleBond ConjugatedDoubleBondInRing NonConjugatedSingleBond NonConjugatedSingleBondInRing NonConjugatedSingleBond NonConjugatedSingleBond NonConjugatedSingleBond NonConjugatedSingleBond NonConjugatedSingleBond ConjugatedSingleBondInRing NonConjugatedSingleBond ConjugatedSingleBondInRing NonConjugatedSingleBond NonConjugatedSingleBond NonConjugatedSingleBond NonConjugatedSingleBond ConjugatedDoubleBond ConjugatedSingleBond ConjugatedSingleBond ConjugatedSingleBond ConjugatedDoubleBond ConjugatedSingleBond ConjugatedSingleBond ConjugatedDoubleBond ConjugatedSingleBond NonConjugatedSingleBond NonConjugatedSingleBond NonConjugatedSingleBondInRing NonConjugatedSingleBondInRing NonConjugatedSingleBond NonConjugatedSingleBond NonConjugatedSingleBondInRing NonConjugatedSingleBond NonConjugatedSingleBond NonConjugatedSingleBond NonConjugatedSingleBondInRing NonConjugatedSingleBondInRing NonConjugatedSingleBond NonConjugatedSingleBond NonConjugatedSingleBond NonConjugatedSingleBond NonConjugatedSingleBond NonConjugatedSingleBondInRing NonConjugatedSingleBond NonConjugatedSingleBond NonConjugatedSingleBond NonConjugatedSingleBond NonConjugatedSingleBond
M  BCL CHI   1   S   5   S  10   S  12   R  29   S  33   R  37   S  39   R  43   R  47   R  49   S
M  BCL DBI - Z - - -
M  END
> <ConfClashScore>
0 

> <ConfOneFourInteractionScore>
-0.962851 

> <ConfScore>
-0.0879565 

> <ConfScorePBest>
0.0122145 

> <ConfTolerance>
1.64733 

$$$$
ChEBI.****
  PyMOL2.5          3D                             0

 58 60  0  0  0  0  0  0  0  0999 V2000
   24.0114   -4.4478    0.1878 C   0  0  0  1  0  0  0  0  0  0  0  0
   24.8853   -5.0446    0.3458 H   0  0  0  1  0  0  0  0  0  0  0  0
   24.1461   -3.7054   -1.0720 N   0  0  0  1  0  0  0  0  0  0  0  0
   22.8826   -5.2617    0.1410 O   0  0  0  1  0  0  0  0  0  0  0  0
   23.8272   -3.4646    1.3602 C   0  0  0  1  0  0  0  0  0  0  0  0
   24.7665   -3.2125    1.8063 H   0  0  0  1  0  0  0  0  0  0  0  0
   25.3520   -3.6882   -1.7186 C   0  0  0  1  0  0  0  0  0  0  0  0
   23.0555   -3.0359   -1.5858 C   0  0  0  1  0  0  0  0  0  0  0  0
   22.1591   -3.0850   -1.0608 H   0  0  0  1  0  0  0  0  0  0  0  0
   22.1483   -5.1842    1.3891 C   0  0  0  1  0  0  0  0  0  0  0  0
   21.1767   -4.7696    1.2186 H   0  0  0  1  0  0  0  0  0  0  0  0
   22.9521   -4.2741    2.3259 C   0  0  0  1  0  0  0  0  0  0  0  0
   23.5535   -4.8502    2.9977 H   0  0  0  1  0  0  0  0  0  0  0  0
   23.1650   -2.2720    0.9369 O   0  0  0  1  0  0  0  0  0  0  0  0
   23.7449   -1.7717    0.3580 H   0  0  0  1  0  0  0  0  0  0  0  0
   25.3674   -2.9691   -2.8939 N   0  0  0  1  0  0  0  0  0  0  0  0
   26.2169   -2.9468   -3.3819 H   0  0  0  1  0  0  0  0  0  0  0  0
   26.3371   -4.2648   -1.2878 O   0  0  0  1  0  0  0  0  0  0  0  0
   23.0832   -2.3237   -2.7255 C   0  0  0  1  0  0  0  0  0  0  0  0
   22.2378   -1.8224   -3.0656 H   0  0  0  1  0  0  0  0  0  0  0  0
   22.0114   -6.5449    1.9889 C   0  0  0  1  0  0  0  0  0  0  0  0
   21.6125   -6.4683    2.9788 H   0  0  0  1  0  0  0  0  0  0  0  0
   22.9670   -7.0249    2.0251 H   0  0  0  1  0  0  0  0  0  0  0  0
   22.0907   -3.4206    3.0719 O   0  0  0  1  0  0  0  0  0  0  0  0
   22.3561   -3.4247    3.9945 H   0  0  0  1  0  0  0  0  0  0  0  0
   24.3152   -2.2772   -3.4573 C   0  0  0  1  0  0  0  0  0  0  0  0
   21.1092   -7.3055    1.1515 O   0  0  0  1  0  0  0  0  0  0  0  0
   24.4257   -1.6668   -4.5078 O   0  0  0  1  0  0  0  0  0  0  0  0
   20.2294   -8.3898    1.7414 P   0  0  0  1  0  0  0  0  0  0  0  0
   19.6102   -9.0350    0.4154 O   0  0  0  1  0  0  0  0  0  0  0  0
   20.9663   -9.4251    2.5535 O   0  0  0  0  0  0  0  0  0  0  0  0
   19.0875   -7.7251    2.3964 O   0  0  0  1  0  0  0  0  0  0  0  0
   19.0328  -10.4553    0.0231 P   0  0  0  1  0  0  0  0  0  0  0  0
   20.1036  -11.4762   -0.0156 O   0  0  0  0  0  0  0  0  0  0  0  0
   17.8714  -10.6887    0.8823 O   0  0  0  1  0  0  0  0  0  0  0  0
   18.5367  -10.1900   -1.4465 O   0  0  0  1  0  0  0  0  0  0  0  0
   18.0039  -11.2687   -2.2579 C   0  0  0  1  0  0  0  0  0  0  0  0
   16.9680  -11.4092   -2.0297 H   0  0  0  1  0  0  0  0  0  0  0  0
   18.7701  -12.5581   -1.9554 C   0  0  0  1  0  0  0  0  0  0  0  0
   18.5980  -12.8403   -0.9377 H   0  0  0  1  0  0  0  0  0  0  0  0
   20.1661  -12.3353   -2.1589 O   0  0  0  1  0  0  0  0  0  0  0  0
   20.5785  -13.1457   -2.4666 H   0  0  0  1  0  0  0  0  0  0  0  0
   18.3624  -13.2485   -4.3345 C   0  0  0  1  0  0  0  0  0  0  0  0
   19.3840  -13.1269   -4.6282 H   0  0  0  1  0  0  0  0  0  0  0  0
   17.7499  -14.2534   -5.1439 O   0  0  0  1  0  0  0  0  0  0  0  0
   17.2966  -14.8857   -4.5815 H   0  0  0  1  0  0  0  0  0  0  0  0
   18.3037  -13.6732   -2.8687 C   0  0  0  1  0  0  0  0  0  0  0  0
   18.9338  -14.5263   -2.7273 H   0  0  0  1  0  0  0  0  0  0  0  0
   17.6214  -11.9274   -4.5203 C   0  0  0  1  0  0  0  0  0  0  0  0
   16.5834  -12.0730   -4.3051 H   0  0  0  1  0  0  0  0  0  0  0  0
   17.7792  -11.4685   -5.9413 C   0  0  0  1  0  0  0  0  0  0  0  0
   17.3634  -12.2020   -6.6001 H   0  0  0  1  0  0  0  0  0  0  0  0
   18.8186  -11.3400   -6.1602 H   0  0  0  1  0  0  0  0  0  0  0  0
   17.1004  -10.2296   -6.1235 O   0  0  0  1  0  0  0  0  0  0  0  0
   17.3028   -9.8782   -6.9936 H   0  0  0  1  0  0  0  0  0  0  0  0
   18.1449  -10.9344   -3.6475 O   0  0  0  1  0  0  0  0  0  0  0  0
   16.9571  -14.0146   -2.5365 O   0  0  0  1  0  0  0  0  0  0  0  0
   16.9537  -14.6054   -1.7798 H   0  0  0  1  0  0  0  0  0  0  0  0
  1  2  1  0  0  0  0
  1  3  1  0  0  0  0
  1  4  1  0  0  0  0
  1  5  1  0  0  0  0
  3  7  1  0  0  0  0
  3  8  1  0  0  0  0
  4 10  1  0  0  0  0
  5  6  1  0  0  0  0
  5 12  1  0  0  0  0
  5 14  1  0  0  0  0
  7 16  1  0  0  0  0
  7 18  2  0  0  0  0
  8  9  1  0  0  0  0
  8 19  2  0  0  0  0
 10 11  1  0  0  0  0
 10 12  1  0  0  0  0
 10 21  1  0  0  0  0
 12 13  1  0  0  0  0
 12 24  1  0  0  0  0
 14 15  1  0  0  0  0
 16 17  1  0  0  0  0
 16 26  1  0  0  0  0
 19 20  1  0  0  0  0
 19 26  1  0  0  0  0
 21 22  1  0  0  0  0
 21 23  1  0  0  0  0
 21 27  1  0  0  0  0
 24 25  1  0  0  0  0
 26 28  2  0  0  0  0
 27 29  1  0  0  0  0
 29 30  1  0  0  0  0
 29 31  1  0  0  0  0
 29 32  2  0  0  0  0
 30 33  1  0  0  0  0
 33 34  1  0  0  0  0
 33 35  2  0  0  0  0
 33 36  1  0  0  0  0
 36 37  1  0  0  0  0
 37 38  1  0  0  0  0
 37 39  1  0  0  0  0
 37 56  1  0  0  0  0
 39 40  1  0  0  0  0
 39 41  1  0  0  0  0
 39 47  1  0  0  0  0
 41 42  1  0  0  0  0
 43 44  1  0  0  0  0
 43 45  1  0  0  0  0
 43 47  1  0  0  0  0
 43 49  1  0  0  0  0
 45 46  1  0  0  0  0
 47 48  1  0  0  0  0
 47 57  1  0  0  0  0
 49 50  1  0  0  0  0
 49 51  1  0  0  0  0
 49 56  1  0  0  0  0
 51 52  1  0  0  0  0
 51 53  1  0  0  0  0
 51 54  1  0  0  0  0
 54 55  1  0  0  0  0
 57 58  1  0  0  0  0
M  BCL ATM C_TeTeTeTe H_S N_TrTrTrPi2 O_Te2Te2TeTe C_TeTeTeTe H_S C_TrTrTrPi C_TrTrTrPi H_S C_TeTeTeTe H_S C_TeTeTeTe H_S O_Te2Te2TeTe H_S N_TrTrTrPi2 H_S O_Tr2Tr2TrPi C_TrTrTrPi H_S C_TeTeTeTe H_S H_S O_Te2Te2TeTe H_S C_TrTrTrPi O_Tr2TrTrPi2 O_Tr2Tr2TrPi P_TeTeTeTePi O_Tr2TrTrPi2 O_Te2Te2TeTe O_Tr2Tr2TrPi P_TeTeTeTePi O_Te2Te2TeTe O_Tr2Tr2TrPi O_Tr2TrTrPi2 C_TeTeTeTe H_S C_TeTeTeTe H_S O_Te2Te2TeTe H_S C_TeTeTeTe H_S O_Te2Te2TeTe H_S C_TeTeTeTe H_S C_TeTeTeTe H_S C_TeTeTeTe H_S H_S O_Te2Te2TeTe H_S O_Te2Te2TeTe O_Te2Te2TeTe H_S
M  BCL BND NonConjugatedSingleBond NonConjugatedSingleBond NonConjugatedSingleBondInRing NonConjugatedSingleBondInRing ConjugatedSingleBondInRing ConjugatedSingleBondInRing NonConjugatedSingleBondInRing NonConjugatedSingleBond NonConjugatedSingleBondInRing NonConjugatedSingleBond ConjugatedSingleBondInRing ConjugatedDoubleBond NonConjugatedSingleBond ConjugatedDoubleBondInRing NonConjugatedSingleBond NonConjugatedSingleBondInRing NonConjugatedSingleBond NonConjugatedSingleBond NonConjugatedSingleBond NonConjugatedSingleBond NonConjugatedSingleBond ConjugatedSingleBondInRing NonConjugatedSingleBond ConjugatedSingleBondInRing NonConjugatedSingleBond NonConjugatedSingleBond NonConjugatedSingleBond NonConjugatedSingleBond ConjugatedDoubleBond ConjugatedSingleBond ConjugatedSingleBond ConjugatedSingleBond ConjugatedDoubleBond ConjugatedSingleBond ConjugatedSingleBond ConjugatedDoubleBond ConjugatedSingleBond NonConjugatedSingleBond NonConjugatedSingleBond NonConjugatedSingleBondInRing NonConjugatedSingleBondInRing NonConjugatedSingleBond NonConjugatedSingleBond NonConjugatedSingleBondInRing NonConjugatedSingleBond NonConjugatedSingleBond NonConjugatedSingleBond NonConjugatedSingleBondInRing NonConjugatedSingleBondInRing NonConjugatedSingleBond NonConjugatedSingleBond NonConjugatedSingleBond NonConjugatedSingleBond NonConjugatedSingleBond NonConjugatedSingleBondInRing NonConjugatedSingleBond NonConjugatedSingleBond NonConjugatedSingleBond NonConjugatedSingleBond NonConjugatedSingleBond
M  BCL CHI   1   S   5   S  10   S  12   R  29   S  33   R  37   S  39   R  43   R  47   R  49   S
M  BCL DBI - Z - - -
M  END
> <ConfClashScore>
0 

> <ConfOneFourInteractionScore>
-0.973716 

> <ConfScore>
-0.0869324 

> <ConfScorePBest>
0.0121115 

> <ConfTolerance>
1.66377 

$$$$
ChEBI.****
  PyMOL2.5          3D                             0

 58 60  0  0  0  0  0  0  0  0999 V2000
   23.6844  -10.4927    4.7914 C   0  0  0  1  0  0  0  0  0  0  0  0
   24.3692  -10.5043    3.9693 H   0  0  0  1  0  0  0  0  0  0  0  0
   24.4225  -10.2704    6.0412 N   0  0  0  1  0  0  0  0  0  0  0  0
   22.7407   -9.4750    4.6094 O   0  0  0  1  0  0  0  0  0  0  0  0
   22.9309  -11.8304    4.8615 C   0  0  0  1  0  0  0  0  0  0  0  0
   23.4149  -12.5772    4.2674 H   0  0  0  1  0  0  0  0  0  0  0  0
   23.7152  -10.0946    7.2159 C   0  0  0  1  0  0  0  0  0  0  0  0
   25.8321  -10.2425    6.0078 C   0  0  0  1  0  0  0  0  0  0  0  0
   26.3264  -10.3783    5.1029 H   0  0  0  1  0  0  0  0  0  0  0  0
   21.3855  -10.0165    4.6526 C   0  0  0  1  0  0  0  0  0  0  0  0
   20.9691   -9.9179    5.6333 H   0  0  0  1  0  0  0  0  0  0  0  0
   21.5537  -11.4733    4.2865 C   0  0  0  1  0  0  0  0  0  0  0  0
   21.5368  -11.6051    3.2247 H   0  0  0  1  0  0  0  0  0  0  0  0
   22.8224  -12.2901    6.2095 O   0  0  0  1  0  0  0  0  0  0  0  0
   22.7886  -13.2494    6.2192 H   0  0  0  1  0  0  0  0  0  0  0  0
   24.4676   -9.8737    8.3319 N   0  0  0  1  0  0  0  0  0  0  0  0
   23.9809   -9.7434    9.1725 H   0  0  0  1  0  0  0  0  0  0  0  0
   22.4964  -10.1345    7.2520 O   0  0  0  1  0  0  0  0  0  0  0  0
   26.5510  -10.0411    7.1378 C   0  0  0  1  0  0  0  0  0  0  0  0
   27.5905  -10.0481    7.1066 H   0  0  0  1  0  0  0  0  0  0  0  0
   20.5021   -9.3177    3.6607 C   0  0  0  1  0  0  0  0  0  0  0  0
   20.3968   -8.2816    3.9062 H   0  0  0  1  0  0  0  0  0  0  0  0
   19.5357   -9.7753    3.6208 H   0  0  0  1  0  0  0  0  0  0  0  0
   20.5294  -12.2708    4.8822 O   0  0  0  1  0  0  0  0  0  0  0  0
   19.7200  -11.7585    4.9446 H   0  0  0  1  0  0  0  0  0  0  0  0
   25.8549   -9.8147    8.3976 C   0  0  0  1  0  0  0  0  0  0  0  0
   21.2057   -9.4832    2.4035 O   0  0  0  1  0  0  0  0  0  0  0  0
   26.4491   -9.5888    9.4389 O   0  0  0  1  0  0  0  0  0  0  0  0
   20.6423   -8.8558    1.0750 P   0  0  0  1  0  0  0  0  0  0  0  0
   19.2688   -9.6632    0.9057 O   0  0  0  1  0  0  0  0  0  0  0  0
   20.3284   -7.4170    1.2524 O   0  0  0  0  0  0  0  0  0  0  0  0
   21.5609   -9.2479    0.0016 O   0  0  0  1  0  0  0  0  0  0  0  0
   18.1451   -9.6589   -0.2360 P   0  0  0  1  0  0  0  0  0  0  0  0
   17.0130  -10.5633    0.0845 O   0  0  0  0  0  0  0  0  0  0  0  0
   17.9163   -8.2286   -0.5086 O   0  0  0  1  0  0  0  0  0  0  0  0
   18.8480  -10.3766   -1.4473 O   0  0  0  1  0  0  0  0  0  0  0  0
   18.1751  -11.4173   -2.1802 C   0  0  0  1  0  0  0  0  0  0  0  0
   17.1584  -11.4842   -1.8534 H   0  0  0  1  0  0  0  0  0  0  0  0
   18.8784  -12.7525   -1.9279 C   0  0  0  1  0  0  0  0  0  0  0  0
   18.7851  -13.0107   -0.8937 H   0  0  0  1  0  0  0  0  0  0  0  0
   20.2607  -12.6279   -2.2653 O   0  0  0  1  0  0  0  0  0  0  0  0
   20.6565  -11.9272   -1.7418 H   0  0  0  1  0  0  0  0  0  0  0  0
   18.2020  -13.4405   -4.2457 C   0  0  0  1  0  0  0  0  0  0  0  0
   19.1970  -13.3923   -4.6360 H   0  0  0  1  0  0  0  0  0  0  0  0
   17.4497  -14.4103   -4.9762 O   0  0  0  1  0  0  0  0  0  0  0  0
   17.8819  -14.5855   -5.8153 H   0  0  0  1  0  0  0  0  0  0  0  0
   18.2541  -13.8435   -2.7736 C   0  0  0  1  0  0  0  0  0  0  0  0
   18.8362  -14.7360   -2.6767 H   0  0  0  1  0  0  0  0  0  0  0  0
   17.5368  -12.0741   -4.3846 C   0  0  0  1  0  0  0  0  0  0  0  0
   16.5164  -12.1460   -4.0706 H   0  0  0  1  0  0  0  0  0  0  0  0
   17.5896  -11.6432   -5.8224 C   0  0  0  1  0  0  0  0  0  0  0  0
   17.1252  -12.3814   -6.4423 H   0  0  0  1  0  0  0  0  0  0  0  0
   18.6068  -11.5100   -6.1267 H   0  0  0  1  0  0  0  0  0  0  0  0
   16.8877  -10.4126   -5.9250 O   0  0  0  1  0  0  0  0  0  0  0  0
   16.4549  -10.2200   -5.0900 H   0  0  0  1  0  0  0  0  0  0  0  0
   18.2059  -11.1093   -3.5826 O   0  0  0  1  0  0  0  0  0  0  0  0
   16.9252  -14.0883   -2.3106 O   0  0  0  1  0  0  0  0  0  0  0  0
   16.3345  -13.4190   -2.6636 H   0  0  0  1  0  0  0  0  0  0  0  0
  1  2  1  0  0  0  0
  1  3  1  0  0  0  0
  1  4  1  0  0  0  0
  1  5  1  0  0  0  0
  3  7  1  0  0  0  0
  3  8  1  0  0  0  0
  4 10  1  0  0  0  0
  5  6  1  0  0  0  0
  5 12  1  0  0  0  0
  5 14  1  0  0  0  0
  7 16  1  0  0  0  0
  7 18  2  0  0  0  0
  8  9  1  0  0  0  0
  8 19  2  0  0  0  0
 10 11  1  0  0  0  0
 10 12  1  0  0  0  0
 10 21  1  0  0  0  0
 12 13  1  0  0  0  0
 12 24  1  0  0  0  0
 14 15  1  0  0  0  0
 16 17  1  0  0  0  0
 16 26  1  0  0  0  0
 19 20  1  0  0  0  0
 19 26  1  0  0  0  0
 21 22  1  0  0  0  0
 21 23  1  0  0  0  0
 21 27  1  0  0  0  0
 24 25  1  0  0  0  0
 26 28  2  0  0  0  0
 27 29  1  0  0  0  0
 29 30  1  0  0  0  0
 29 31  1  0  0  0  0
 29 32  2  0  0  0  0
 30 33  1  0  0  0  0
 33 34  1  0  0  0  0
 33 35  2  0  0  0  0
 33 36  1  0  0  0  0
 36 37  1  0  0  0  0
 37 38  1  0  0  0  0
 37 39  1  0  0  0  0
 37 56  1  0  0  0  0
 39 40  1  0  0  0  0
 39 41  1  0  0  0  0
 39 47  1  0  0  0  0
 41 42  1  0  0  0  0
 43 44  1  0  0  0  0
 43 45  1  0  0  0  0
 43 47  1  0  0  0  0
 43 49  1  0  0  0  0
 45 46  1  0  0  0  0
 47 48  1  0  0  0  0
 47 57  1  0  0  0  0
 49 50  1  0  0  0  0
 49 51  1  0  0  0  0
 49 56  1  0  0  0  0
 51 52  1  0  0  0  0
 51 53  1  0  0  0  0
 51 54  1  0  0  0  0
 54 55  1  0  0  0  0
 57 58  1  0  0  0  0
M  BCL ATM C_TeTeTeTe H_S N_TrTrTrPi2 O_Te2Te2TeTe C_TeTeTeTe H_S C_TrTrTrPi C_TrTrTrPi H_S C_TeTeTeTe H_S C_TeTeTeTe H_S O_Te2Te2TeTe H_S N_TrTrTrPi2 H_S O_Tr2Tr2TrPi C_TrTrTrPi H_S C_TeTeTeTe H_S H_S O_Te2Te2TeTe H_S C_TrTrTrPi O_Tr2TrTrPi2 O_Tr2Tr2TrPi P_TeTeTeTePi O_Tr2TrTrPi2 O_Te2Te2TeTe O_Tr2Tr2TrPi P_TeTeTeTePi O_Te2Te2TeTe O_Tr2Tr2TrPi O_Tr2TrTrPi2 C_TeTeTeTe H_S C_TeTeTeTe H_S O_Te2Te2TeTe H_S C_TeTeTeTe H_S O_Te2Te2TeTe H_S C_TeTeTeTe H_S C_TeTeTeTe H_S C_TeTeTeTe H_S H_S O_Te2Te2TeTe H_S O_Te2Te2TeTe O_Te2Te2TeTe H_S
M  BCL BND NonConjugatedSingleBond NonConjugatedSingleBond NonConjugatedSingleBondInRing NonConjugatedSingleBondInRing ConjugatedSingleBondInRing ConjugatedSingleBondInRing NonConjugatedSingleBondInRing NonConjugatedSingleBond NonConjugatedSingleBondInRing NonConjugatedSingleBond ConjugatedSingleBondInRing ConjugatedDoubleBond NonConjugatedSingleBond ConjugatedDoubleBondInRing NonConjugatedSingleBond NonConjugatedSingleBondInRing NonConjugatedSingleBond NonConjugatedSingleBond NonConjugatedSingleBond NonConjugatedSingleBond NonConjugatedSingleBond ConjugatedSingleBondInRing NonConjugatedSingleBond ConjugatedSingleBondInRing NonConjugatedSingleBond NonConjugatedSingleBond NonConjugatedSingleBond NonConjugatedSingleBond ConjugatedDoubleBond ConjugatedSingleBond ConjugatedSingleBond ConjugatedSingleBond ConjugatedDoubleBond ConjugatedSingleBond ConjugatedSingleBond ConjugatedDoubleBond ConjugatedSingleBond NonConjugatedSingleBond NonConjugatedSingleBond NonConjugatedSingleBondInRing NonConjugatedSingleBondInRing NonConjugatedSingleBond NonConjugatedSingleBond NonConjugatedSingleBondInRing NonConjugatedSingleBond NonConjugatedSingleBond NonConjugatedSingleBond NonConjugatedSingleBondInRing NonConjugatedSingleBondInRing NonConjugatedSingleBond NonConjugatedSingleBond NonConjugatedSingleBond NonConjugatedSingleBond NonConjugatedSingleBond NonConjugatedSingleBondInRing NonConjugatedSingleBond NonConjugatedSingleBond NonConjugatedSingleBond NonConjugatedSingleBond NonConjugatedSingleBond
M  BCL CHI   1   S   5   S  10   S  12   R  29   S  33   R  37   S  39   R  43   R  47   R  49   S
M  BCL DBI - Z - - -
M  END
> <ConfClashScore>
0 

> <ConfOneFourInteractionScore>
-0.980309 

> <ConfScore>
-0.0837255 

> <ConfScorePBest>
0.0120085 

> <ConfTolerance>
1.67445 

$$$$
ChEBI.****
  PyMOL2.5          3D                             0

 58 60  0  0  0  0  0  0  0  0999 V2000
   11.7978  -11.6005    2.6813 C   0  0  0  1  0  0  0  0  0  0  0  0
   11.9544  -11.9908    3.6652 H   0  0  0  1  0  0  0  0  0  0  0  0
   10.4402  -11.0582    2.5806 N   0  0  0  1  0  0  0  0  0  0  0  0
   12.7512  -10.6005    2.3898 O   0  0  0  1  0  0  0  0  0  0  0  0
   12.0143  -12.6840    1.6405 C   0  0  0  1  0  0  0  0  0  0  0  0
   12.7778  -13.3682    1.9469 H   0  0  0  1  0  0  0  0  0  0  0  0
    9.4507  -11.5661    3.3776 C   0  0  0  1  0  0  0  0  0  0  0  0
   10.1789  -10.0436    1.6840 C   0  0  0  1  0  0  0  0  0  0  0  0
   10.9660   -9.6868    1.1054 H   0  0  0  1  0  0  0  0  0  0  0  0
   13.3259  -10.8168    1.0722 C   0  0  0  1  0  0  0  0  0  0  0  0
   13.2981   -9.9154    0.4964 H   0  0  0  1  0  0  0  0  0  0  0  0
   12.4456  -11.8905    0.4341 C   0  0  0  1  0  0  0  0  0  0  0  0
   13.0018  -12.4944   -0.2521 H   0  0  0  1  0  0  0  0  0  0  0  0
   10.8060  -13.4019    1.3823 O   0  0  0  1  0  0  0  0  0  0  0  0
   10.2587  -12.8998    0.7741 H   0  0  0  1  0  0  0  0  0  0  0  0
    8.2147  -10.9810    3.2083 N   0  0  0  1  0  0  0  0  0  0  0  0
    7.4890  -11.3204    3.7727 H   0  0  0  1  0  0  0  0  0  0  0  0
    9.6475  -12.4671    4.1763 O   0  0  0  1  0  0  0  0  0  0  0  0
    8.9664   -9.4887    1.5140 C   0  0  0  1  0  0  0  0  0  0  0  0
    8.8145   -8.7353    0.8134 H   0  0  0  1  0  0  0  0  0  0  0  0
   14.7369  -11.2926    1.1856 C   0  0  0  1  0  0  0  0  0  0  0  0
   15.1111  -11.5569    0.2186 H   0  0  0  1  0  0  0  0  0  0  0  0
   14.7835  -12.1443    1.8316 H   0  0  0  1  0  0  0  0  0  0  0  0
   11.3245  -11.3136   -0.2386 O   0  0  0  1  0  0  0  0  0  0  0  0
   11.6090  -10.5391   -0.7293 H   0  0  0  1  0  0  0  0  0  0  0  0
    7.8892   -9.9687    2.3294 C   0  0  0  1  0  0  0  0  0  0  0  0
   15.5223  -10.2107    1.7391 O   0  0  0  1  0  0  0  0  0  0  0  0
    6.7454   -9.5064    2.2503 O   0  0  0  1  0  0  0  0  0  0  0  0
   17.0433  -10.4141    2.0872 P   0  0  0  1  0  0  0  0  0  0  0  0
   17.8977  -10.3449    0.7174 O   0  0  0  1  0  0  0  0  0  0  0  0
   17.4019   -9.2226    2.9804 O   0  0  0  0  0  0  0  0  0  0  0  0
   17.3120  -11.7284    2.7159 O   0  0  0  1  0  0  0  0  0  0  0  0
   18.1282   -9.3007   -0.4700 P   0  0  0  1  0  0  0  0  0  0  0  0
   16.7817   -8.9501   -0.9745 O   0  0  0  0  0  0  0  0  0  0  0  0
   19.0444   -8.2302   -0.0476 O   0  0  0  1  0  0  0  0  0  0  0  0
   18.7706  -10.1770   -1.5981 O   0  0  0  1  0  0  0  0  0  0  0  0
   18.1314  -11.2351   -2.2688 C   0  0  0  1  0  0  0  0  0  0  0  0
   17.1136  -11.3001   -1.9452 H   0  0  0  1  0  0  0  0  0  0  0  0
   18.8507  -12.5472   -1.9493 C   0  0  0  1  0  0  0  0  0  0  0  0
   18.7541  -12.7573   -0.9046 H   0  0  0  1  0  0  0  0  0  0  0  0
   20.2334  -12.4200   -2.2841 O   0  0  0  1  0  0  0  0  0  0  0  0
   20.7701  -12.7534   -1.5614 H   0  0  0  1  0  0  0  0  0  0  0  0
   18.1985  -13.3533   -4.2357 C   0  0  0  1  0  0  0  0  0  0  0  0
   19.1953  -13.3102   -4.6221 H   0  0  0  1  0  0  0  0  0  0  0  0
   17.4634  -14.3673   -4.9242 O   0  0  0  1  0  0  0  0  0  0  0  0
   18.0615  -15.0664   -5.1984 H   0  0  0  1  0  0  0  0  0  0  0  0
   18.2464  -13.6853   -2.7459 C   0  0  0  1  0  0  0  0  0  0  0  0
   18.8396  -14.5643   -2.6034 H   0  0  0  1  0  0  0  0  0  0  0  0
   17.5162  -12.0041   -4.4433 C   0  0  0  1  0  0  0  0  0  0  0  0
   16.4949  -12.0749   -4.1322 H   0  0  0  1  0  0  0  0  0  0  0  0
   17.5727  -11.6412   -5.8993 C   0  0  0  1  0  0  0  0  0  0  0  0
   17.1594  -12.4386   -6.4809 H   0  0  0  1  0  0  0  0  0  0  0  0
   18.5908  -11.4802   -6.1865 H   0  0  0  1  0  0  0  0  0  0  0  0
   16.8244  -10.4541   -6.1261 O   0  0  0  1  0  0  0  0  0  0  0  0
   16.8719  -10.2179   -7.0554 H   0  0  0  1  0  0  0  0  0  0  0  0
   18.1672  -10.9934   -3.6840 O   0  0  0  1  0  0  0  0  0  0  0  0
   16.9179  -13.9259   -2.2796 O   0  0  0  1  0  0  0  0  0  0  0  0
   16.3940  -14.3077   -2.9877 H   0  0  0  1  0  0  0  0  0  0  0  0
  1  2  1  0  0  0  0
  1  3  1  0  0  0  0
  1  4  1  0  0  0  0
  1  5  1  0  0  0  0
  3  7  1  0  0  0  0
  3  8  1  0  0  0  0
  4 10  1  0  0  0  0
  5  6  1  0  0  0  0
  5 12  1  0  0  0  0
  5 14  1  0  0  0  0
  7 16  1  0  0  0  0
  7 18  2  0  0  0  0
  8  9  1  0  0  0  0
  8 19  2  0  0  0  0
 10 11  1  0  0  0  0
 10 12  1  0  0  0  0
 10 21  1  0  0  0  0
 12 13  1  0  0  0  0
 12 24  1  0  0  0  0
 14 15  1  0  0  0  0
 16 17  1  0  0  0  0
 16 26  1  0  0  0  0
 19 20  1  0  0  0  0
 19 26  1  0  0  0  0
 21 22  1  0  0  0  0
 21 23  1  0  0  0  0
 21 27  1  0  0  0  0
 24 25  1  0  0  0  0
 26 28  2  0  0  0  0
 27 29  1  0  0  0  0
 29 30  1  0  0  0  0
 29 31  1  0  0  0  0
 29 32  2  0  0  0  0
 30 33  1  0  0  0  0
 33 34  1  0  0  0  0
 33 35  2  0  0  0  0
 33 36  1  0  0  0  0
 36 37  1  0  0  0  0
 37 38  1  0  0  0  0
 37 39  1  0  0  0  0
 37 56  1  0  0  0  0
 39 40  1  0  0  0  0
 39 41  1  0  0  0  0
 39 47  1  0  0  0  0
 41 42  1  0  0  0  0
 43 44  1  0  0  0  0
 43 45  1  0  0  0  0
 43 47  1  0  0  0  0
 43 49  1  0  0  0  0
 45 46  1  0  0  0  0
 47 48  1  0  0  0  0
 47 57  1  0  0  0  0
 49 50  1  0  0  0  0
 49 51  1  0  0  0  0
 49 56  1  0  0  0  0
 51 52  1  0  0  0  0
 51 53  1  0  0  0  0
 51 54  1  0  0  0  0
 54 55  1  0  0  0  0
 57 58  1  0  0  0  0
M  BCL ATM C_TeTeTeTe H_S N_TrTrTrPi2 O_Te2Te2TeTe C_TeTeTeTe H_S C_TrTrTrPi C_TrTrTrPi H_S C_TeTeTeTe H_S C_TeTeTeTe H_S O_Te2Te2TeTe H_S N_TrTrTrPi2 H_S O_Tr2Tr2TrPi C_TrTrTrPi H_S C_TeTeTeTe H_S H_S O_Te2Te2TeTe H_S C_TrTrTrPi O_Tr2TrTrPi2 O_Tr2Tr2TrPi P_TeTeTeTePi O_Tr2TrTrPi2 O_Te2Te2TeTe O_Tr2Tr2TrPi P_TeTeTeTePi O_Te2Te2TeTe O_Tr2Tr2TrPi O_Tr2TrTrPi2 C_TeTeTeTe H_S C_TeTeTeTe H_S O_Te2Te2TeTe H_S C_TeTeTeTe H_S O_Te2Te2TeTe H_S C_TeTeTeTe H_S C_TeTeTeTe H_S C_TeTeTeTe H_S H_S O_Te2Te2TeTe H_S O_Te2Te2TeTe O_Te2Te2TeTe H_S
M  BCL BND NonConjugatedSingleBond NonConjugatedSingleBond NonConjugatedSingleBondInRing NonConjugatedSingleBondInRing ConjugatedSingleBondInRing ConjugatedSingleBondInRing NonConjugatedSingleBondInRing NonConjugatedSingleBond NonConjugatedSingleBondInRing NonConjugatedSingleBond ConjugatedSingleBondInRing ConjugatedDoubleBond NonConjugatedSingleBond ConjugatedDoubleBondInRing NonConjugatedSingleBond NonConjugatedSingleBondInRing NonConjugatedSingleBond NonConjugatedSingleBond NonConjugatedSingleBond NonConjugatedSingleBond NonConjugatedSingleBond ConjugatedSingleBondInRing NonConjugatedSingleBond ConjugatedSingleBondInRing NonConjugatedSingleBond NonConjugatedSingleBond NonConjugatedSingleBond NonConjugatedSingleBond ConjugatedDoubleBond ConjugatedSingleBond ConjugatedSingleBond ConjugatedSingleBond ConjugatedDoubleBond ConjugatedSingleBond ConjugatedSingleBond ConjugatedDoubleBond ConjugatedSingleBond NonConjugatedSingleBond NonConjugatedSingleBond NonConjugatedSingleBondInRing NonConjugatedSingleBondInRing NonConjugatedSingleBond NonConjugatedSingleBond NonConjugatedSingleBondInRing NonConjugatedSingleBond NonConjugatedSingleBond NonConjugatedSingleBond NonConjugatedSingleBondInRing NonConjugatedSingleBondInRing NonConjugatedSingleBond NonConjugatedSingleBond NonConjugatedSingleBond NonConjugatedSingleBond NonConjugatedSingleBond NonConjugatedSingleBondInRing NonConjugatedSingleBond NonConjugatedSingleBond NonConjugatedSingleBond NonConjugatedSingleBond NonConjugatedSingleBond
M  BCL CHI   1   S   5   S  10   S  12   R  29   S  33   R  37   S  39   R  43   R  47   R  49   S
M  BCL DBI - Z - - -
M  END
> <ConfClashScore>
0 

> <ConfOneFourInteractionScore>
-0.974253 

> <ConfScore>
-0.0813433 

> <ConfScorePBest>
0.0119055 

> <ConfTolerance>
1.53968 

$$$$
ChEBI.****
  PyMOL2.5          3D                             0

 58 60  0  0  0  0  0  0  0  0999 V2000
   24.6001  -10.6724    3.2221 C   0  0  0  1  0  0  0  0  0  0  0  0
   24.2498  -11.6662    3.0362 H   0  0  0  1  0  0  0  0  0  0  0  0
   25.9166  -10.7294    3.8554 N   0  0  0  1  0  0  0  0  0  0  0  0
   24.6666   -9.9300    1.9992 O   0  0  0  1  0  0  0  0  0  0  0  0
   23.6123   -9.9173    4.1135 C   0  0  0  1  0  0  0  0  0  0  0  0
   22.6083  -10.2542    3.9605 H   0  0  0  1  0  0  0  0  0  0  0  0
   26.3011  -11.8791    4.4783 C   0  0  0  1  0  0  0  0  0  0  0  0
   26.7304   -9.6203    3.8045 C   0  0  0  1  0  0  0  0  0  0  0  0
   26.3927   -8.7602    3.3272 H   0  0  0  1  0  0  0  0  0  0  0  0
   24.1067   -8.6174    2.1874 C   0  0  0  1  0  0  0  0  0  0  0  0
   24.8125   -7.8693    1.8920 H   0  0  0  1  0  0  0  0  0  0  0  0
   23.8048   -8.4917    3.6175 C   0  0  0  1  0  0  0  0  0  0  0  0
   22.9119   -7.9205    3.7632 H   0  0  0  1  0  0  0  0  0  0  0  0
   23.9517  -10.0421    5.4953 O   0  0  0  1  0  0  0  0  0  0  0  0
   24.2092  -10.9479    5.6815 H   0  0  0  1  0  0  0  0  0  0  0  0
   27.5427  -11.8666    5.0356 N   0  0  0  1  0  0  0  0  0  0  0  0
   27.8329  -12.6848    5.4904 H   0  0  0  1  0  0  0  0  0  0  0  0
   25.5767  -12.8593    4.5330 O   0  0  0  1  0  0  0  0  0  0  0  0
   27.9478   -9.6297    4.3582 C   0  0  0  1  0  0  0  0  0  0  0  0
   28.5455   -8.7801    4.3090 H   0  0  0  1  0  0  0  0  0  0  0  0
   22.8577   -8.4698    1.3823 C   0  0  0  1  0  0  0  0  0  0  0  0
   22.8405   -9.1990    0.5994 H   0  0  0  1  0  0  0  0  0  0  0  0
   22.8115   -7.4887    0.9578 H   0  0  0  1  0  0  0  0  0  0  0  0
   24.8891   -7.8653    4.3045 O   0  0  0  1  0  0  0  0  0  0  0  0
   24.6328   -6.9778    4.5660 H   0  0  0  1  0  0  0  0  0  0  0  0
   28.4339  -10.8089    5.0212 C   0  0  0  1  0  0  0  0  0  0  0  0
   21.7349   -8.6752    2.2717 O   0  0  0  1  0  0  0  0  0  0  0  0
   29.5430  -10.8717    5.5300 O   0  0  0  1  0  0  0  0  0  0  0  0
   20.2419   -8.3794    1.7177 P   0  0  0  1  0  0  0  0  0  0  0  0
   20.1093   -9.4357    0.4997 O   0  0  0  1  0  0  0  0  0  0  0  0
   19.2374   -8.7842    2.7283 O   0  0  0  0  0  0  0  0  0  0  0  0
   20.3154   -6.9978    1.2073 O   0  0  0  1  0  0  0  0  0  0  0  0
   18.7330  -10.1626    0.0536 P   0  0  0  1  0  0  0  0  0  0  0  0
   18.7710  -11.5006    0.6907 O   0  0  0  0  0  0  0  0  0  0  0  0
   17.5849   -9.3014    0.2690 O   0  0  0  1  0  0  0  0  0  0  0  0
   18.8334  -10.2655   -1.5134 O   0  0  0  1  0  0  0  0  0  0  0  0
   18.1683  -11.3205   -2.2264 C   0  0  0  1  0  0  0  0  0  0  0  0
   17.1395  -11.3555   -1.9345 H   0  0  0  1  0  0  0  0  0  0  0  0
   18.8359  -12.6568   -1.8952 C   0  0  0  1  0  0  0  0  0  0  0  0
   18.7007  -12.8709   -0.8556 H   0  0  0  1  0  0  0  0  0  0  0  0
   20.2316  -12.5712   -2.1868 O   0  0  0  1  0  0  0  0  0  0  0  0
   20.5166  -11.6566   -2.1235 H   0  0  0  1  0  0  0  0  0  0  0  0
   18.2292  -13.4265   -4.2066 C   0  0  0  1  0  0  0  0  0  0  0  0
   19.2384  -13.4123   -4.5621 H   0  0  0  1  0  0  0  0  0  0  0  0
   17.4846  -14.4115   -4.9246 O   0  0  0  1  0  0  0  0  0  0  0  0
   17.6466  -14.3127   -5.8656 H   0  0  0  1  0  0  0  0  0  0  0  0
   18.2209  -13.7699   -2.7186 C   0  0  0  1  0  0  0  0  0  0  0  0
   18.7816  -14.6682   -2.5649 H   0  0  0  1  0  0  0  0  0  0  0  0
   17.5964  -12.0550   -4.4245 C   0  0  0  1  0  0  0  0  0  0  0  0
   16.5642  -12.0955   -4.1452 H   0  0  0  1  0  0  0  0  0  0  0  0
   17.7089  -11.6842   -5.8753 C   0  0  0  1  0  0  0  0  0  0  0  0
   17.2694  -12.4543   -6.4743 H   0  0  0  1  0  0  0  0  0  0  0  0
   18.7410  -11.5747   -6.1353 H   0  0  0  1  0  0  0  0  0  0  0  0
   17.0298  -10.4577   -6.1099 O   0  0  0  1  0  0  0  0  0  0  0  0
   17.6463   -9.7275   -6.0186 H   0  0  0  1  0  0  0  0  0  0  0  0
   18.2551  -11.0706   -3.6380 O   0  0  0  1  0  0  0  0  0  0  0  0
   16.8718  -13.9715   -2.2949 O   0  0  0  1  0  0  0  0  0  0  0  0
   16.6675  -14.9094   -2.3116 H   0  0  0  1  0  0  0  0  0  0  0  0
  1  2  1  0  0  0  0
  1  3  1  0  0  0  0
  1  4  1  0  0  0  0
  1  5  1  0  0  0  0
  3  7  1  0  0  0  0
  3  8  1  0  0  0  0
  4 10  1  0  0  0  0
  5  6  1  0  0  0  0
  5 12  1  0  0  0  0
  5 14  1  0  0  0  0
  7 16  1  0  0  0  0
  7 18  2  0  0  0  0
  8  9  1  0  0  0  0
  8 19  2  0  0  0  0
 10 11  1  0  0  0  0
 10 12  1  0  0  0  0
 10 21  1  0  0  0  0
 12 13  1  0  0  0  0
 12 24  1  0  0  0  0
 14 15  1  0  0  0  0
 16 17  1  0  0  0  0
 16 26  1  0  0  0  0
 19 20  1  0  0  0  0
 19 26  1  0  0  0  0
 21 22  1  0  0  0  0
 21 23  1  0  0  0  0
 21 27  1  0  0  0  0
 24 25  1  0  0  0  0
 26 28  2  0  0  0  0
 27 29  1  0  0  0  0
 29 30  1  0  0  0  0
 29 31  1  0  0  0  0
 29 32  2  0  0  0  0
 30 33  1  0  0  0  0
 33 34  1  0  0  0  0
 33 35  2  0  0  0  0
 33 36  1  0  0  0  0
 36 37  1  0  0  0  0
 37 38  1  0  0  0  0
 37 39  1  0  0  0  0
 37 56  1  0  0  0  0
 39 40  1  0  0  0  0
 39 41  1  0  0  0  0
 39 47  1  0  0  0  0
 41 42  1  0  0  0  0
 43 44  1  0  0  0  0
 43 45  1  0  0  0  0
 43 47  1  0  0  0  0
 43 49  1  0  0  0  0
 45 46  1  0  0  0  0
 47 48  1  0  0  0  0
 47 57  1  0  0  0  0
 49 50  1  0  0  0  0
 49 51  1  0  0  0  0
 49 56  1  0  0  0  0
 51 52  1  0  0  0  0
 51 53  1  0  0  0  0
 51 54  1  0  0  0  0
 54 55  1  0  0  0  0
 57 58  1  0  0  0  0
M  BCL ATM C_TeTeTeTe H_S N_TrTrTrPi2 O_Te2Te2TeTe C_TeTeTeTe H_S C_TrTrTrPi C_TrTrTrPi H_S C_TeTeTeTe H_S C_TeTeTeTe H_S O_Te2Te2TeTe H_S N_TrTrTrPi2 H_S O_Tr2Tr2TrPi C_TrTrTrPi H_S C_TeTeTeTe H_S H_S O_Te2Te2TeTe H_S C_TrTrTrPi O_Tr2TrTrPi2 O_Tr2Tr2TrPi P_TeTeTeTePi O_Tr2TrTrPi2 O_Te2Te2TeTe O_Tr2Tr2TrPi P_TeTeTeTePi O_Te2Te2TeTe O_Tr2Tr2TrPi O_Tr2TrTrPi2 C_TeTeTeTe H_S C_TeTeTeTe H_S O_Te2Te2TeTe H_S C_TeTeTeTe H_S O_Te2Te2TeTe H_S C_TeTeTeTe H_S C_TeTeTeTe H_S C_TeTeTeTe H_S H_S O_Te2Te2TeTe H_S O_Te2Te2TeTe O_Te2Te2TeTe H_S
M  BCL BND NonConjugatedSingleBond NonConjugatedSingleBond NonConjugatedSingleBondInRing NonConjugatedSingleBondInRing ConjugatedSingleBondInRing ConjugatedSingleBondInRing NonConjugatedSingleBondInRing NonConjugatedSingleBond NonConjugatedSingleBondInRing NonConjugatedSingleBond ConjugatedSingleBondInRing ConjugatedDoubleBond NonConjugatedSingleBond ConjugatedDoubleBondInRing NonConjugatedSingleBond NonConjugatedSingleBondInRing NonConjugatedSingleBond NonConjugatedSingleBond NonConjugatedSingleBond NonConjugatedSingleBond NonConjugatedSingleBond ConjugatedSingleBondInRing NonConjugatedSingleBond ConjugatedSingleBondInRing NonConjugatedSingleBond NonConjugatedSingleBond NonConjugatedSingleBond NonConjugatedSingleBond ConjugatedDoubleBond ConjugatedSingleBond ConjugatedSingleBond ConjugatedSingleBond ConjugatedDoubleBond ConjugatedSingleBond ConjugatedSingleBond ConjugatedDoubleBond ConjugatedSingleBond NonConjugatedSingleBond NonConjugatedSingleBond NonConjugatedSingleBondInRing NonConjugatedSingleBondInRing NonConjugatedSingleBond NonConjugatedSingleBond NonConjugatedSingleBondInRing NonConjugatedSingleBond NonConjugatedSingleBond NonConjugatedSingleBond NonConjugatedSingleBondInRing NonConjugatedSingleBondInRing NonConjugatedSingleBond NonConjugatedSingleBond NonConjugatedSingleBond NonConjugatedSingleBond NonConjugatedSingleBond NonConjugatedSingleBondInRing NonConjugatedSingleBond NonConjugatedSingleBond NonConjugatedSingleBond NonConjugatedSingleBond NonConjugatedSingleBond
M  BCL CHI   1   S   5   S  10   S  12   R  29   S  33   R  37   S  39   R  43   R  47   R  49   S
M  BCL DBI - Z - - -
M  END
> <ConfClashScore>
0 

> <ConfOneFourInteractionScore>
-0.972111 

> <ConfScore>
-0.0801927 

> <ConfScorePBest>
0.0118025 

> <ConfTolerance>
1.66147 

$$$$
ChEBI.****
  PyMOL2.5          3D                             0

 58 60  0  0  0  0  0  0  0  0999 V2000
   11.8458  -10.4768   -2.2952 C   0  0  0  1  0  0  0  0  0  0  0  0
   12.6453  -10.9805   -2.7973 H   0  0  0  1  0  0  0  0  0  0  0  0
   10.8111  -11.4513   -1.9195 N   0  0  0  1  0  0  0  0  0  0  0  0
   12.3288   -9.8348   -1.1580 O   0  0  0  1  0  0  0  0  0  0  0  0
   11.2428   -9.3988   -3.2167 C   0  0  0  1  0  0  0  0  0  0  0  0
   11.3564   -9.6618   -4.2476 H   0  0  0  1  0  0  0  0  0  0  0  0
   10.6347  -12.5835   -2.6851 C   0  0  0  1  0  0  0  0  0  0  0  0
   10.0337  -11.2196   -0.8098 C   0  0  0  1  0  0  0  0  0  0  0  0
   10.1991  -10.3529   -0.2594 H   0  0  0  1  0  0  0  0  0  0  0  0
   12.4624   -8.4107   -1.3966 C   0  0  0  1  0  0  0  0  0  0  0  0
   11.8058   -7.8667   -0.7501 H   0  0  0  1  0  0  0  0  0  0  0  0
   12.0819   -8.1644   -2.8617 C   0  0  0  1  0  0  0  0  0  0  0  0
   12.9535   -8.1023   -3.4793 H   0  0  0  1  0  0  0  0  0  0  0  0
    9.8602   -9.1854   -2.9287 O   0  0  0  1  0  0  0  0  0  0  0  0
    9.5469   -8.4175   -3.4120 H   0  0  0  1  0  0  0  0  0  0  0  0
    9.6472  -13.4407   -2.2642 N   0  0  0  1  0  0  0  0  0  0  0  0
    9.5074  -14.2515   -2.7966 H   0  0  0  1  0  0  0  0  0  0  0  0
   11.3125  -12.8101   -3.6738 O   0  0  0  1  0  0  0  0  0  0  0  0
    9.0593  -12.0722   -0.4003 C   0  0  0  1  0  0  0  0  0  0  0  0
    8.4898  -11.8649    0.4449 H   0  0  0  1  0  0  0  0  0  0  0  0
   13.8547   -7.9850   -1.1562 C   0  0  0  1  0  0  0  0  0  0  0  0
   14.1767   -8.3541   -0.2049 H   0  0  0  1  0  0  0  0  0  0  0  0
   13.9017   -6.9160   -1.1590 H   0  0  0  1  0  0  0  0  0  0  0  0
   11.3147   -6.9668   -2.9976 O   0  0  0  1  0  0  0  0  0  0  0  0
   10.4126   -7.1301   -2.7129 H   0  0  0  1  0  0  0  0  0  0  0  0
    8.8352  -13.2692   -1.1655 C   0  0  0  1  0  0  0  0  0  0  0  0
   14.7285   -8.5042   -2.1905 O   0  0  0  1  0  0  0  0  0  0  0  0
    7.9772  -14.0836   -0.8595 O   0  0  0  1  0  0  0  0  0  0  0  0
   16.3273   -8.3271   -2.0873 P   0  0  0  1  0  0  0  0  0  0  0  0
   16.4934   -9.1185   -0.6861 O   0  0  0  1  0  0  0  0  0  0  0  0
   16.9787   -9.0579   -3.2008 O   0  0  0  0  0  0  0  0  0  0  0  0
   16.6469   -6.9034   -1.8815 O   0  0  0  1  0  0  0  0  0  0  0  0
   17.8826   -9.7130   -0.2156 P   0  0  0  1  0  0  0  0  0  0  0  0
   18.7530   -8.6557    0.3543 O   0  0  0  0  0  0  0  0  0  0  0  0
   17.5812  -10.8895    0.6008 O   0  0  0  1  0  0  0  0  0  0  0  0
   18.4936  -10.1838   -1.5832 O   0  0  0  1  0  0  0  0  0  0  0  0
   17.9958  -11.2791   -2.3116 C   0  0  0  1  0  0  0  0  0  0  0  0
   16.9690  -11.4402   -2.0574 H   0  0  0  1  0  0  0  0  0  0  0  0
   18.8069  -12.5297   -1.9662 C   0  0  0  1  0  0  0  0  0  0  0  0
   18.6620  -12.7702   -0.9337 H   0  0  0  1  0  0  0  0  0  0  0  0
   20.1915  -12.2744   -2.2065 O   0  0  0  1  0  0  0  0  0  0  0  0
   20.7178  -12.9859   -1.8344 H   0  0  0  1  0  0  0  0  0  0  0  0
   18.3781  -13.3398   -4.3035 C   0  0  0  1  0  0  0  0  0  0  0  0
   19.3901  -13.2010   -4.6221 H   0  0  0  1  0  0  0  0  0  0  0  0
   17.7824  -14.3989   -5.0551 O   0  0  0  1  0  0  0  0  0  0  0  0
   16.8657  -14.1832   -5.2416 H   0  0  0  1  0  0  0  0  0  0  0  0
   18.3589  -13.6988   -2.8192 C   0  0  0  1  0  0  0  0  0  0  0  0
   19.0176  -14.5252   -2.6518 H   0  0  0  1  0  0  0  0  0  0  0  0
   17.5934  -12.0515   -4.5342 C   0  0  0  1  0  0  0  0  0  0  0  0
   16.5644  -12.2183   -4.2927 H   0  0  0  1  0  0  0  0  0  0  0  0
   17.7115  -11.6527   -5.9795 C   0  0  0  1  0  0  0  0  0  0  0  0
   18.6757  -11.9462   -6.3389 H   0  0  0  1  0  0  0  0  0  0  0  0
   17.6117  -10.5898   -6.0517 H   0  0  0  1  0  0  0  0  0  0  0  0
   16.7170  -12.2605   -6.7933 O   0  0  0  1  0  0  0  0  0  0  0  0
   15.8572  -12.1581   -6.3789 H   0  0  0  1  0  0  0  0  0  0  0  0
   18.1014  -11.0044   -3.7174 O   0  0  0  1  0  0  0  0  0  0  0  0
   17.0297  -14.0651   -2.4460 O   0  0  0  1  0  0  0  0  0  0  0  0
   17.0617  -14.6823   -1.7113 H   0  0  0  1  0  0  0  0  0  0  0  0
  1  2  1  0  0  0  0
  1  3  1  0  0  0  0
  1  4  1  0  0  0  0
  1  5  1  0  0  0  0
  3  7  1  0  0  0  0
  3  8  1  0  0  0  0
  4 10  1  0  0  0  0
  5  6  1  0  0  0  0
  5 12  1  0  0  0  0
  5 14  1  0  0  0  0
  7 16  1  0  0  0  0
  7 18  2  0  0  0  0
  8  9  1  0  0  0  0
  8 19  2  0  0  0  0
 10 11  1  0  0  0  0
 10 12  1  0  0  0  0
 10 21  1  0  0  0  0
 12 13  1  0  0  0  0
 12 24  1  0  0  0  0
 14 15  1  0  0  0  0
 16 17  1  0  0  0  0
 16 26  1  0  0  0  0
 19 20  1  0  0  0  0
 19 26  1  0  0  0  0
 21 22  1  0  0  0  0
 21 23  1  0  0  0  0
 21 27  1  0  0  0  0
 24 25  1  0  0  0  0
 26 28  2  0  0  0  0
 27 29  1  0  0  0  0
 29 30  1  0  0  0  0
 29 31  1  0  0  0  0
 29 32  2  0  0  0  0
 30 33  1  0  0  0  0
 33 34  1  0  0  0  0
 33 35  2  0  0  0  0
 33 36  1  0  0  0  0
 36 37  1  0  0  0  0
 37 38  1  0  0  0  0
 37 39  1  0  0  0  0
 37 56  1  0  0  0  0
 39 40  1  0  0  0  0
 39 41  1  0  0  0  0
 39 47  1  0  0  0  0
 41 42  1  0  0  0  0
 43 44  1  0  0  0  0
 43 45  1  0  0  0  0
 43 47  1  0  0  0  0
 43 49  1  0  0  0  0
 45 46  1  0  0  0  0
 47 48  1  0  0  0  0
 47 57  1  0  0  0  0
 49 50  1  0  0  0  0
 49 51  1  0  0  0  0
 49 56  1  0  0  0  0
 51 52  1  0  0  0  0
 51 53  1  0  0  0  0
 51 54  1  0  0  0  0
 54 55  1  0  0  0  0
 57 58  1  0  0  0  0
M  BCL ATM C_TeTeTeTe H_S N_TrTrTrPi2 O_Te2Te2TeTe C_TeTeTeTe H_S C_TrTrTrPi C_TrTrTrPi H_S C_TeTeTeTe H_S C_TeTeTeTe H_S O_Te2Te2TeTe H_S N_TrTrTrPi2 H_S O_Tr2Tr2TrPi C_TrTrTrPi H_S C_TeTeTeTe H_S H_S O_Te2Te2TeTe H_S C_TrTrTrPi O_Tr2TrTrPi2 O_Tr2Tr2TrPi P_TeTeTeTePi O_Tr2TrTrPi2 O_Te2Te2TeTe O_Tr2Tr2TrPi P_TeTeTeTePi O_Te2Te2TeTe O_Tr2Tr2TrPi O_Tr2TrTrPi2 C_TeTeTeTe H_S C_TeTeTeTe H_S O_Te2Te2TeTe H_S C_TeTeTeTe H_S O_Te2Te2TeTe H_S C_TeTeTeTe H_S C_TeTeTeTe H_S C_TeTeTeTe H_S H_S O_Te2Te2TeTe H_S O_Te2Te2TeTe O_Te2Te2TeTe H_S
M  BCL BND NonConjugatedSingleBond NonConjugatedSingleBond NonConjugatedSingleBondInRing NonConjugatedSingleBondInRing ConjugatedSingleBondInRing ConjugatedSingleBondInRing NonConjugatedSingleBondInRing NonConjugatedSingleBond NonConjugatedSingleBondInRing NonConjugatedSingleBond ConjugatedSingleBondInRing ConjugatedDoubleBond NonConjugatedSingleBond ConjugatedDoubleBondInRing NonConjugatedSingleBond NonConjugatedSingleBondInRing NonConjugatedSingleBond NonConjugatedSingleBond NonConjugatedSingleBond NonConjugatedSingleBond NonConjugatedSingleBond ConjugatedSingleBondInRing NonConjugatedSingleBond ConjugatedSingleBondInRing NonConjugatedSingleBond NonConjugatedSingleBond NonConjugatedSingleBond NonConjugatedSingleBond ConjugatedDoubleBond ConjugatedSingleBond ConjugatedSingleBond ConjugatedSingleBond ConjugatedDoubleBond ConjugatedSingleBond ConjugatedSingleBond ConjugatedDoubleBond ConjugatedSingleBond NonConjugatedSingleBond NonConjugatedSingleBond NonConjugatedSingleBondInRing NonConjugatedSingleBondInRing NonConjugatedSingleBond NonConjugatedSingleBond NonConjugatedSingleBondInRing NonConjugatedSingleBond NonConjugatedSingleBond NonConjugatedSingleBond NonConjugatedSingleBondInRing NonConjugatedSingleBondInRing NonConjugatedSingleBond NonConjugatedSingleBond NonConjugatedSingleBond NonConjugatedSingleBond NonConjugatedSingleBond NonConjugatedSingleBondInRing NonConjugatedSingleBond NonConjugatedSingleBond NonConjugatedSingleBond NonConjugatedSingleBond NonConjugatedSingleBond
M  BCL CHI   1   S   5   S  10   S  12   R  29   S  33   R  37   S  39   R  43   R  47   R  49   S
M  BCL DBI - Z - - -
M  END
> <ConfClashScore>
0 

> <ConfOneFourInteractionScore>
-0.967876 

> <ConfScore>
-0.0795416 

> <ConfScorePBest>
0.0116995 

> <ConfTolerance>
1.60427 

$$$$
ChEBI.****
  PyMOL2.5          3D                             0

 58 60  0  0  0  0  0  0  0  0999 V2000
   24.3996   -9.3067    2.1256 C   0  0  0  1  0  0  0  0  0  0  0  0
   24.4819   -8.2573    1.9338 H   0  0  0  1  0  0  0  0  0  0  0  0
   24.3484   -9.5366    3.5686 N   0  0  0  1  0  0  0  0  0  0  0  0
   23.2498   -9.8108    1.5233 O   0  0  0  1  0  0  0  0  0  0  0  0
   25.6060  -10.0484    1.5177 C   0  0  0  1  0  0  0  0  0  0  0  0
   26.4693   -9.4175    1.4775 H   0  0  0  1  0  0  0  0  0  0  0  0
   24.5472   -8.4791    4.4263 C   0  0  0  1  0  0  0  0  0  0  0  0
   24.1046  -10.7937    4.0356 C   0  0  0  1  0  0  0  0  0  0  0  0
   23.9859  -11.5671    3.3504 H   0  0  0  1  0  0  0  0  0  0  0  0
   23.5852  -10.5270    0.3077 C   0  0  0  1  0  0  0  0  0  0  0  0
   23.3198  -11.5590    0.4042 H   0  0  0  1  0  0  0  0  0  0  0  0
   25.0998  -10.3890    0.1101 C   0  0  0  1  0  0  0  0  0  0  0  0
   25.3268   -9.6033   -0.5799 H   0  0  0  1  0  0  0  0  0  0  0  0
   25.9139  -11.2321    2.2585 O   0  0  0  1  0  0  0  0  0  0  0  0
   26.4568  -11.0036    3.0166 H   0  0  0  1  0  0  0  0  0  0  0  0
   24.4536   -8.7701    5.7767 N   0  0  0  1  0  0  0  0  0  0  0  0
   24.5982   -8.0358    6.4093 H   0  0  0  1  0  0  0  0  0  0  0  0
   24.7910   -7.3542    4.0218 O   0  0  0  1  0  0  0  0  0  0  0  0
   24.0127  -11.0701    5.3340 C   0  0  0  1  0  0  0  0  0  0  0  0
   23.8266  -12.0455    5.6430 H   0  0  0  1  0  0  0  0  0  0  0  0
   22.8602   -9.9323   -0.8544 C   0  0  0  1  0  0  0  0  0  0  0  0
   23.0208  -10.5288   -1.7281 H   0  0  0  1  0  0  0  0  0  0  0  0
   23.2106   -8.9370   -1.0321 H   0  0  0  1  0  0  0  0  0  0  0  0
   25.6691  -11.6129   -0.3569 O   0  0  0  1  0  0  0  0  0  0  0  0
   26.5519  -11.7148    0.0062 H   0  0  0  1  0  0  0  0  0  0  0  0
   24.1682  -10.0336    6.3067 C   0  0  0  1  0  0  0  0  0  0  0  0
   21.4509   -9.9074   -0.5270 O   0  0  0  1  0  0  0  0  0  0  0  0
   24.0603  -10.2352    7.5070 O   0  0  0  1  0  0  0  0  0  0  0  0
   20.8501   -8.7583    0.3645 P   0  0  0  1  0  0  0  0  0  0  0  0
   19.3251   -8.5501   -0.0983 O   0  0  0  1  0  0  0  0  0  0  0  0
   20.7882   -9.2147    1.7840 O   0  0  0  0  0  0  0  0  0  0  0  0
   21.6712   -7.5487    0.1207 O   0  0  0  1  0  0  0  0  0  0  0  0
   18.1588   -9.6796   -0.2360 P   0  0  0  1  0  0  0  0  0  0  0  0
   18.2933  -10.6880    0.8426 O   0  0  0  0  0  0  0  0  0  0  0  0
   16.8522   -9.0426   -0.4802 O   0  0  0  1  0  0  0  0  0  0  0  0
   18.7693  -10.2382   -1.5744 O   0  0  0  1  0  0  0  0  0  0  0  0
   18.1236  -11.3132   -2.2907 C   0  0  0  1  0  0  0  0  0  0  0  0
   17.0991  -11.3786   -1.9891 H   0  0  0  1  0  0  0  0  0  0  0  0
   18.8317  -12.6320   -1.9736 C   0  0  0  1  0  0  0  0  0  0  0  0
   18.7127  -12.8553   -0.9340 H   0  0  0  1  0  0  0  0  0  0  0  0
   20.2215  -12.5056   -2.2782 O   0  0  0  1  0  0  0  0  0  0  0  0
   20.6905  -12.1807   -1.5061 H   0  0  0  1  0  0  0  0  0  0  0  0
   18.2241  -13.4058   -4.2834 C   0  0  0  1  0  0  0  0  0  0  0  0
   19.2290  -13.3613   -4.6485 H   0  0  0  1  0  0  0  0  0  0  0  0
   17.4996  -14.4085   -5.0006 O   0  0  0  1  0  0  0  0  0  0  0  0
   17.5202  -14.2089   -5.9394 H   0  0  0  1  0  0  0  0  0  0  0  0
   18.2400  -13.7574   -2.7974 C   0  0  0  1  0  0  0  0  0  0  0  0
   18.8272  -14.6404   -2.6542 H   0  0  0  1  0  0  0  0  0  0  0  0
   17.5510  -12.0515   -4.4874 C   0  0  0  1  0  0  0  0  0  0  0  0
   16.5232  -12.1225   -4.1983 H   0  0  0  1  0  0  0  0  0  0  0  0
   17.6389  -11.6692   -5.9393 C   0  0  0  1  0  0  0  0  0  0  0  0
   17.1826  -10.7103   -6.0701 H   0  0  0  1  0  0  0  0  0  0  0  0
   17.1114  -12.3978   -6.5187 H   0  0  0  1  0  0  0  0  0  0  0  0
   18.9811  -11.6026   -6.4027 O   0  0  0  1  0  0  0  0  0  0  0  0
   18.9885  -11.5912   -7.3626 H   0  0  0  1  0  0  0  0  0  0  0  0
   18.1896  -11.0532   -3.7016 O   0  0  0  1  0  0  0  0  0  0  0  0
   16.9014  -13.9991   -2.3619 O   0  0  0  1  0  0  0  0  0  0  0  0
   16.8989  -14.7032   -1.7093 H   0  0  0  1  0  0  0  0  0  0  0  0
  1  2  1  0  0  0  0
  1  3  1  0  0  0  0
  1  4  1  0  0  0  0
  1  5  1  0  0  0  0
  3  7  1  0  0  0  0
  3  8  1  0  0  0  0
  4 10  1  0  0  0  0
  5  6  1  0  0  0  0
  5 12  1  0  0  0  0
  5 14  1  0  0  0  0
  7 16  1  0  0  0  0
  7 18  2  0  0  0  0
  8  9  1  0  0  0  0
  8 19  2  0  0  0  0
 10 11  1  0  0  0  0
 10 12  1  0  0  0  0
 10 21  1  0  0  0  0
 12 13  1  0  0  0  0
 12 24  1  0  0  0  0
 14 15  1  0  0  0  0
 16 17  1  0  0  0  0
 16 26  1  0  0  0  0
 19 20  1  0  0  0  0
 19 26  1  0  0  0  0
 21 22  1  0  0  0  0
 21 23  1  0  0  0  0
 21 27  1  0  0  0  0
 24 25  1  0  0  0  0
 26 28  2  0  0  0  0
 27 29  1  0  0  0  0
 29 30  1  0  0  0  0
 29 31  1  0  0  0  0
 29 32  2  0  0  0  0
 30 33  1  0  0  0  0
 33 34  1  0  0  0  0
 33 35  2  0  0  0  0
 33 36  1  0  0  0  0
 36 37  1  0  0  0  0
 37 38  1  0  0  0  0
 37 39  1  0  0  0  0
 37 56  1  0  0  0  0
 39 40  1  0  0  0  0
 39 41  1  0  0  0  0
 39 47  1  0  0  0  0
 41 42  1  0  0  0  0
 43 44  1  0  0  0  0
 43 45  1  0  0  0  0
 43 47  1  0  0  0  0
 43 49  1  0  0  0  0
 45 46  1  0  0  0  0
 47 48  1  0  0  0  0
 47 57  1  0  0  0  0
 49 50  1  0  0  0  0
 49 51  1  0  0  0  0
 49 56  1  0  0  0  0
 51 52  1  0  0  0  0
 51 53  1  0  0  0  0
 51 54  1  0  0  0  0
 54 55  1  0  0  0  0
 57 58  1  0  0  0  0
M  BCL ATM C_TeTeTeTe H_S N_TrTrTrPi2 O_Te2Te2TeTe C_TeTeTeTe H_S C_TrTrTrPi C_TrTrTrPi H_S C_TeTeTeTe H_S C_TeTeTeTe H_S O_Te2Te2TeTe H_S N_TrTrTrPi2 H_S O_Tr2Tr2TrPi C_TrTrTrPi H_S C_TeTeTeTe H_S H_S O_Te2Te2TeTe H_S C_TrTrTrPi O_Tr2TrTrPi2 O_Tr2Tr2TrPi P_TeTeTeTePi O_Tr2TrTrPi2 O_Te2Te2TeTe O_Tr2Tr2TrPi P_TeTeTeTePi O_Te2Te2TeTe O_Tr2Tr2TrPi O_Tr2TrTrPi2 C_TeTeTeTe H_S C_TeTeTeTe H_S O_Te2Te2TeTe H_S C_TeTeTeTe H_S O_Te2Te2TeTe H_S C_TeTeTeTe H_S C_TeTeTeTe H_S C_TeTeTeTe H_S H_S O_Te2Te2TeTe H_S O_Te2Te2TeTe O_Te2Te2TeTe H_S
M  BCL BND NonConjugatedSingleBond NonConjugatedSingleBond NonConjugatedSingleBondInRing NonConjugatedSingleBondInRing ConjugatedSingleBondInRing ConjugatedSingleBondInRing NonConjugatedSingleBondInRing NonConjugatedSingleBond NonConjugatedSingleBondInRing NonConjugatedSingleBond ConjugatedSingleBondInRing ConjugatedDoubleBond NonConjugatedSingleBond ConjugatedDoubleBondInRing NonConjugatedSingleBond NonConjugatedSingleBondInRing NonConjugatedSingleBond NonConjugatedSingleBond NonConjugatedSingleBond NonConjugatedSingleBond NonConjugatedSingleBond ConjugatedSingleBondInRing NonConjugatedSingleBond ConjugatedSingleBondInRing NonConjugatedSingleBond NonConjugatedSingleBond NonConjugatedSingleBond NonConjugatedSingleBond ConjugatedDoubleBond ConjugatedSingleBond ConjugatedSingleBond ConjugatedSingleBond ConjugatedDoubleBond ConjugatedSingleBond ConjugatedSingleBond ConjugatedDoubleBond ConjugatedSingleBond NonConjugatedSingleBond NonConjugatedSingleBond NonConjugatedSingleBondInRing NonConjugatedSingleBondInRing NonConjugatedSingleBond NonConjugatedSingleBond NonConjugatedSingleBondInRing NonConjugatedSingleBond NonConjugatedSingleBond NonConjugatedSingleBond NonConjugatedSingleBondInRing NonConjugatedSingleBondInRing NonConjugatedSingleBond NonConjugatedSingleBond NonConjugatedSingleBond NonConjugatedSingleBond NonConjugatedSingleBond NonConjugatedSingleBondInRing NonConjugatedSingleBond NonConjugatedSingleBond NonConjugatedSingleBond NonConjugatedSingleBond NonConjugatedSingleBond
M  BCL CHI   1   S   5   S  10   S  12   R  29   S  33   R  37   S  39   R  43   R  47   R  49   S
M  BCL DBI - Z - - -
M  END
> <ConfClashScore>
0 

> <ConfOneFourInteractionScore>
-0.985704 

> <ConfScore>
-0.0793638 

> <ConfScorePBest>
0.0115965 

> <ConfTolerance>
1.76664 

$$$$
ChEBI.****
  PyMOL2.5          3D                             0

 58 60  0  0  0  0  0  0  0  0999 V2000
   21.2611   -6.5994   -7.8182 C   0  0  0  1  0  0  0  0  0  0  0  0
   22.2416   -6.9105   -7.5237 H   0  0  0  1  0  0  0  0  0  0  0  0
   21.1668   -6.5989   -9.2772 N   0  0  0  1  0  0  0  0  0  0  0  0
   20.3052   -7.4693   -7.2806 O   0  0  0  1  0  0  0  0  0  0  0  0
   20.9765   -5.1896   -7.2765 C   0  0  0  1  0  0  0  0  0  0  0  0
   21.8782   -4.7094   -6.9585 H   0  0  0  1  0  0  0  0  0  0  0  0
   19.9612   -6.3495   -9.8746 C   0  0  0  1  0  0  0  0  0  0  0  0
   22.2941   -6.8498  -10.0307 C   0  0  0  1  0  0  0  0  0  0  0  0
   23.1882   -7.0268   -9.5300 H   0  0  0  1  0  0  0  0  0  0  0  0
   19.3254   -6.7310   -6.4890 C   0  0  0  1  0  0  0  0  0  0  0  0
   18.4594   -6.5032   -7.0746 H   0  0  0  1  0  0  0  0  0  0  0  0
   20.0476   -5.4657   -6.0867 C   0  0  0  1  0  0  0  0  0  0  0  0
   20.6104   -5.6156   -5.1890 H   0  0  0  1  0  0  0  0  0  0  0  0
   20.3274   -4.3819   -8.2596 O   0  0  0  1  0  0  0  0  0  0  0  0
   19.6757   -3.8203   -7.8335 H   0  0  0  1  0  0  0  0  0  0  0  0
   19.9845   -6.3656  -11.2522 N   0  0  0  1  0  0  0  0  0  0  0  0
   19.1357   -6.1820  -11.7062 H   0  0  0  1  0  0  0  0  0  0  0  0
   18.9446   -6.1299   -9.2369 O   0  0  0  1  0  0  0  0  0  0  0  0
   22.3049   -6.8789  -11.3746 C   0  0  0  1  0  0  0  0  0  0  0  0
   23.1779   -7.0880  -11.8997 H   0  0  0  1  0  0  0  0  0  0  0  0
   18.9203   -7.5147   -5.2841 C   0  0  0  1  0  0  0  0  0  0  0  0
   19.7782   -7.7230   -4.6795 H   0  0  0  1  0  0  0  0  0  0  0  0
   18.4631   -8.4343   -5.5843 H   0  0  0  1  0  0  0  0  0  0  0  0
   19.1263   -4.3901   -5.8979 O   0  0  0  1  0  0  0  0  0  0  0  0
   19.5540   -3.6840   -5.4078 H   0  0  0  1  0  0  0  0  0  0  0  0
   21.0746   -6.6125  -12.0609 C   0  0  0  1  0  0  0  0  0  0  0  0
   17.9806   -6.7203   -4.5427 O   0  0  0  1  0  0  0  0  0  0  0  0
   20.9968   -6.6046  -13.2803 O   0  0  0  1  0  0  0  0  0  0  0  0
   17.0018   -7.2702   -3.3994 P   0  0  0  1  0  0  0  0  0  0  0  0
   17.9864   -7.8525   -2.2713 O   0  0  0  1  0  0  0  0  0  0  0  0
   16.2951   -6.0662   -2.9160 O   0  0  0  0  0  0  0  0  0  0  0  0
   16.2416   -8.4344   -3.8819 O   0  0  0  1  0  0  0  0  0  0  0  0
   17.9975   -8.8386   -0.9876 P   0  0  0  1  0  0  0  0  0  0  0  0
   18.8669   -8.3146    0.0939 O   0  0  0  0  0  0  0  0  0  0  0  0
   16.5681   -9.0818   -0.6800 O   0  0  0  1  0  0  0  0  0  0  0  0
   18.7239  -10.1335   -1.4867 O   0  0  0  1  0  0  0  0  0  0  0  0
   18.1024  -11.2076   -2.2104 C   0  0  0  1  0  0  0  0  0  0  0  0
   17.0679  -11.2664   -1.9437 H   0  0  0  1  0  0  0  0  0  0  0  0
   18.7940  -12.5257   -1.8561 C   0  0  0  1  0  0  0  0  0  0  0  0
   18.6384  -12.7382   -0.8191 H   0  0  0  1  0  0  0  0  0  0  0  0
   20.1939  -12.4073   -2.1137 O   0  0  0  1  0  0  0  0  0  0  0  0
   20.4108  -12.8719   -2.9253 H   0  0  0  1  0  0  0  0  0  0  0  0
   18.2634  -13.3203   -4.1778 C   0  0  0  1  0  0  0  0  0  0  0  0
   19.2804  -13.2831   -4.5084 H   0  0  0  1  0  0  0  0  0  0  0  0
   17.5609  -14.3265   -4.9088 O   0  0  0  1  0  0  0  0  0  0  0  0
   18.0990  -15.1199   -4.9600 H   0  0  0  1  0  0  0  0  0  0  0  0
   18.2267  -13.6571   -2.6887 C   0  0  0  1  0  0  0  0  0  0  0  0
   18.8051  -14.5407   -2.5166 H   0  0  0  1  0  0  0  0  0  0  0  0
   17.6030  -11.9657   -4.4181 C   0  0  0  1  0  0  0  0  0  0  0  0
   16.5656  -12.0302   -4.1641 H   0  0  0  1  0  0  0  0  0  0  0  0
   17.7422  -11.5988   -5.8679 C   0  0  0  1  0  0  0  0  0  0  0  0
   17.3838  -12.3977   -6.4829 H   0  0  0  1  0  0  0  0  0  0  0  0
   18.7687  -11.4036   -6.0982 H   0  0  0  1  0  0  0  0  0  0  0  0
   16.9645  -10.4297   -6.0890 O   0  0  0  1  0  0  0  0  0  0  0  0
   17.5455   -9.6896   -6.2795 H   0  0  0  1  0  0  0  0  0  0  0  0
   18.2180  -10.9619   -3.6207 O   0  0  0  1  0  0  0  0  0  0  0  0
   16.8729  -13.8897   -2.2973 O   0  0  0  1  0  0  0  0  0  0  0  0
   16.5230  -14.6397   -2.7837 H   0  0  0  1  0  0  0  0  0  0  0  0
  1  2  1  0  0  0  0
  1  3  1  0  0  0  0
  1  4  1  0  0  0  0
  1  5  1  0  0  0  0
  3  7  1  0  0  0  0
  3  8  1  0  0  0  0
  4 10  1  0  0  0  0
  5  6  1  0  0  0  0
  5 12  1  0  0  0  0
  5 14  1  0  0  0  0
  7 16  1  0  0  0  0
  7 18  2  0  0  0  0
  8  9  1  0  0  0  0
  8 19  2  0  0  0  0
 10 11  1  0  0  0  0
 10 12  1  0  0  0  0
 10 21  1  0  0  0  0
 12 13  1  0  0  0  0
 12 24  1  0  0  0  0
 14 15  1  0  0  0  0
 16 17  1  0  0  0  0
 16 26  1  0  0  0  0
 19 20  1  0  0  0  0
 19 26  1  0  0  0  0
 21 22  1  0  0  0  0
 21 23  1  0  0  0  0
 21 27  1  0  0  0  0
 24 25  1  0  0  0  0
 26 28  2  0  0  0  0
 27 29  1  0  0  0  0
 29 30  1  0  0  0  0
 29 31  1  0  0  0  0
 29 32  2  0  0  0  0
 30 33  1  0  0  0  0
 33 34  1  0  0  0  0
 33 35  2  0  0  0  0
 33 36  1  0  0  0  0
 36 37  1  0  0  0  0
 37 38  1  0  0  0  0
 37 39  1  0  0  0  0
 37 56  1  0  0  0  0
 39 40  1  0  0  0  0
 39 41  1  0  0  0  0
 39 47  1  0  0  0  0
 41 42  1  0  0  0  0
 43 44  1  0  0  0  0
 43 45  1  0  0  0  0
 43 47  1  0  0  0  0
 43 49  1  0  0  0  0
 45 46  1  0  0  0  0
 47 48  1  0  0  0  0
 47 57  1  0  0  0  0
 49 50  1  0  0  0  0
 49 51  1  0  0  0  0
 49 56  1  0  0  0  0
 51 52  1  0  0  0  0
 51 53  1  0  0  0  0
 51 54  1  0  0  0  0
 54 55  1  0  0  0  0
 57 58  1  0  0  0  0
M  BCL ATM C_TeTeTeTe H_S N_TrTrTrPi2 O_Te2Te2TeTe C_TeTeTeTe H_S C_TrTrTrPi C_TrTrTrPi H_S C_TeTeTeTe H_S C_TeTeTeTe H_S O_Te2Te2TeTe H_S N_TrTrTrPi2 H_S O_Tr2Tr2TrPi C_TrTrTrPi H_S C_TeTeTeTe H_S H_S O_Te2Te2TeTe H_S C_TrTrTrPi O_Tr2TrTrPi2 O_Tr2Tr2TrPi P_TeTeTeTePi O_Tr2TrTrPi2 O_Te2Te2TeTe O_Tr2Tr2TrPi P_TeTeTeTePi O_Te2Te2TeTe O_Tr2Tr2TrPi O_Tr2TrTrPi2 C_TeTeTeTe H_S C_TeTeTeTe H_S O_Te2Te2TeTe H_S C_TeTeTeTe H_S O_Te2Te2TeTe H_S C_TeTeTeTe H_S C_TeTeTeTe H_S C_TeTeTeTe H_S H_S O_Te2Te2TeTe H_S O_Te2Te2TeTe O_Te2Te2TeTe H_S
M  BCL BND NonConjugatedSingleBond NonConjugatedSingleBond NonConjugatedSingleBondInRing NonConjugatedSingleBondInRing ConjugatedSingleBondInRing ConjugatedSingleBondInRing NonConjugatedSingleBondInRing NonConjugatedSingleBond NonConjugatedSingleBondInRing NonConjugatedSingleBond ConjugatedSingleBondInRing ConjugatedDoubleBond NonConjugatedSingleBond ConjugatedDoubleBondInRing NonConjugatedSingleBond NonConjugatedSingleBondInRing NonConjugatedSingleBond NonConjugatedSingleBond NonConjugatedSingleBond NonConjugatedSingleBond NonConjugatedSingleBond ConjugatedSingleBondInRing NonConjugatedSingleBond ConjugatedSingleBondInRing NonConjugatedSingleBond NonConjugatedSingleBond NonConjugatedSingleBond NonConjugatedSingleBond ConjugatedDoubleBond ConjugatedSingleBond ConjugatedSingleBond ConjugatedSingleBond ConjugatedDoubleBond ConjugatedSingleBond ConjugatedSingleBond ConjugatedDoubleBond ConjugatedSingleBond NonConjugatedSingleBond NonConjugatedSingleBond NonConjugatedSingleBondInRing NonConjugatedSingleBondInRing NonConjugatedSingleBond NonConjugatedSingleBond NonConjugatedSingleBondInRing NonConjugatedSingleBond NonConjugatedSingleBond NonConjugatedSingleBond NonConjugatedSingleBondInRing NonConjugatedSingleBondInRing NonConjugatedSingleBond NonConjugatedSingleBond NonConjugatedSingleBond NonConjugatedSingleBond NonConjugatedSingleBond NonConjugatedSingleBondInRing NonConjugatedSingleBond NonConjugatedSingleBond NonConjugatedSingleBond NonConjugatedSingleBond NonConjugatedSingleBond
M  BCL CHI   1   S   5   S  10   S  12   R  29   S  33   R  37   S  39   R  43   R  47   R  49   S
M  BCL DBI - Z - - -
M  END
> <ConfClashScore>
0 

> <ConfOneFourInteractionScore>
-0.978243 

> <ConfScore>
-0.0784056 

> <ConfScorePBest>
0.0114935 

> <ConfTolerance>
1.73087 

$$$$
ChEBI.****
  PyMOL2.5          3D                             0

 58 60  0  0  0  0  0  0  0  0999 V2000
   22.9575   -8.5146   -1.6613 C   0  0  0  1  0  0  0  0  0  0  0  0
   22.2838   -8.5494   -0.8308 H   0  0  0  1  0  0  0  0  0  0  0  0
   24.3329   -8.7097   -1.1853 N   0  0  0  1  0  0  0  0  0  0  0  0
   22.6109   -9.5220   -2.6382 O   0  0  0  1  0  0  0  0  0  0  0  0
   22.8292   -7.1803   -2.4021 C   0  0  0  1  0  0  0  0  0  0  0  0
   21.8750   -6.7310   -2.2212 H   0  0  0  1  0  0  0  0  0  0  0  0
   25.2630   -9.2772   -2.0361 C   0  0  0  1  0  0  0  0  0  0  0  0
   24.6660   -8.3127    0.1263 C   0  0  0  1  0  0  0  0  0  0  0  0
   23.9363   -7.8902    0.7351 H   0  0  0  1  0  0  0  0  0  0  0  0
   22.3123   -8.9604   -3.8874 C   0  0  0  1  0  0  0  0  0  0  0  0
   22.7219   -9.5543   -4.6776 H   0  0  0  1  0  0  0  0  0  0  0  0
   22.9746   -7.5756   -3.8482 C   0  0  0  1  0  0  0  0  0  0  0  0
   22.4660   -6.8865   -4.4895 H   0  0  0  1  0  0  0  0  0  0  0  0
   23.8615   -6.2779   -2.0125 O   0  0  0  1  0  0  0  0  0  0  0  0
   23.4731   -5.4389   -1.7539 H   0  0  0  1  0  0  0  0  0  0  0  0
   26.5136   -9.4448   -1.5181 N   0  0  0  1  0  0  0  0  0  0  0  0
   27.1839   -9.8494   -2.1075 H   0  0  0  1  0  0  0  0  0  0  0  0
   24.9833   -9.6068   -3.1769 O   0  0  0  1  0  0  0  0  0  0  0  0
   25.9230   -8.4742    0.6040 C   0  0  0  1  0  0  0  0  0  0  0  0
   26.1646   -8.1544    1.5637 H   0  0  0  1  0  0  0  0  0  0  0  0
   20.8356   -8.8356   -4.0718 C   0  0  0  1  0  0  0  0  0  0  0  0
   20.3474   -9.7162   -3.7099 H   0  0  0  1  0  0  0  0  0  0  0  0
   20.6079   -8.7015   -5.1087 H   0  0  0  1  0  0  0  0  0  0  0  0
   24.3501   -7.6519   -4.2254 O   0  0  0  1  0  0  0  0  0  0  0  0
   24.4243   -8.0781   -5.0823 H   0  0  0  1  0  0  0  0  0  0  0  0
   26.9335   -9.0999   -0.2385 C   0  0  0  1  0  0  0  0  0  0  0  0
   20.3946   -7.6823   -3.3173 O   0  0  0  1  0  0  0  0  0  0  0  0
   28.0723   -9.3072    0.1528 O   0  0  0  1  0  0  0  0  0  0  0  0
   18.9287   -7.1160   -3.4858 P   0  0  0  1  0  0  0  0  0  0  0  0
   18.0432   -8.3927   -3.0358 O   0  0  0  1  0  0  0  0  0  0  0  0
   18.6718   -6.0028   -2.5398 O   0  0  0  0  0  0  0  0  0  0  0  0
   18.7311   -6.8807   -4.9166 O   0  0  0  1  0  0  0  0  0  0  0  0
   17.8353   -8.8633   -1.5425 P   0  0  0  1  0  0  0  0  0  0  0  0
   18.5903   -7.9534   -0.6264 O   0  0  0  0  0  0  0  0  0  0  0  0
   16.3709   -8.9290   -1.3100 O   0  0  0  1  0  0  0  0  0  0  0  0
   18.5186  -10.2834   -1.4033 O   0  0  0  1  0  0  0  0  0  0  0  0
   18.0092  -11.3796   -2.2008 C   0  0  0  1  0  0  0  0  0  0  0  0
   16.9763  -11.5386   -1.9710 H   0  0  0  1  0  0  0  0  0  0  0  0
   18.8015  -12.6495   -1.8836 C   0  0  0  1  0  0  0  0  0  0  0  0
   18.6351  -12.9235   -0.8628 H   0  0  0  1  0  0  0  0  0  0  0  0
   20.1928  -12.4006   -2.0897 O   0  0  0  1  0  0  0  0  0  0  0  0
   20.4480  -12.7103   -2.9618 H   0  0  0  1  0  0  0  0  0  0  0  0
   18.4084  -13.3751   -4.2547 C   0  0  0  1  0  0  0  0  0  0  0  0
   19.4275  -13.2361   -4.5498 H   0  0  0  1  0  0  0  0  0  0  0  0
   17.8164  -14.4021   -5.0531 O   0  0  0  1  0  0  0  0  0  0  0  0
   17.0311  -14.0589   -5.4857 H   0  0  0  1  0  0  0  0  0  0  0  0
   18.3582  -13.7842   -2.7842 C   0  0  0  1  0  0  0  0  0  0  0  0
   19.0055  -14.6227   -2.6331 H   0  0  0  1  0  0  0  0  0  0  0  0
   17.6407  -12.0716   -4.4555 C   0  0  0  1  0  0  0  0  0  0  0  0
   16.6059  -12.2359   -4.2386 H   0  0  0  1  0  0  0  0  0  0  0  0
   17.7893  -11.6258   -5.8817 C   0  0  0  1  0  0  0  0  0  0  0  0
   17.2223  -10.7316   -6.0357 H   0  0  0  1  0  0  0  0  0  0  0  0
   17.4291  -12.3939   -6.5337 H   0  0  0  1  0  0  0  0  0  0  0  0
   19.1592  -11.3711   -6.1632 O   0  0  0  1  0  0  0  0  0  0  0  0
   19.3161  -11.4678   -7.1054 H   0  0  0  1  0  0  0  0  0  0  0  0
   18.1436  -11.0583   -3.5941 O   0  0  0  1  0  0  0  0  0  0  0  0
   17.0188  -14.1493   -2.4480 O   0  0  0  1  0  0  0  0  0  0  0  0
   16.8645  -13.9789   -1.5160 H   0  0  0  1  0  0  0  0  0  0  0  0
  1  2  1  0  0  0  0
  1  3  1  0  0  0  0
  1  4  1  0  0  0  0
  1  5  1  0  0  0  0
  3  7  1  0  0  0  0
  3  8  1  0  0  0  0
  4 10  1  0  0  0  0
  5  6  1  0  0  0  0
  5 12  1  0  0  0  0
  5 14  1  0  0  0  0
  7 16  1  0  0  0  0
  7 18  2  0  0  0  0
  8  9  1  0  0  0  0
  8 19  2  0  0  0  0
 10 11  1  0  0  0  0
 10 12  1  0  0  0  0
 10 21  1  0  0  0  0
 12 13  1  0  0  0  0
 12 24  1  0  0  0  0
 14 15  1  0  0  0  0
 16 17  1  0  0  0  0
 16 26  1  0  0  0  0
 19 20  1  0  0  0  0
 19 26  1  0  0  0  0
 21 22  1  0  0  0  0
 21 23  1  0  0  0  0
 21 27  1  0  0  0  0
 24 25  1  0  0  0  0
 26 28  2  0  0  0  0
 27 29  1  0  0  0  0
 29 30  1  0  0  0  0
 29 31  1  0  0  0  0
 29 32  2  0  0  0  0
 30 33  1  0  0  0  0
 33 34  1  0  0  0  0
 33 35  2  0  0  0  0
 33 36  1  0  0  0  0
 36 37  1  0  0  0  0
 37 38  1  0  0  0  0
 37 39  1  0  0  0  0
 37 56  1  0  0  0  0
 39 40  1  0  0  0  0
 39 41  1  0  0  0  0
 39 47  1  0  0  0  0
 41 42  1  0  0  0  0
 43 44  1  0  0  0  0
 43 45  1  0  0  0  0
 43 47  1  0  0  0  0
 43 49  1  0  0  0  0
 45 46  1  0  0  0  0
 47 48  1  0  0  0  0
 47 57  1  0  0  0  0
 49 50  1  0  0  0  0
 49 51  1  0  0  0  0
 49 56  1  0  0  0  0
 51 52  1  0  0  0  0
 51 53  1  0  0  0  0
 51 54  1  0  0  0  0
 54 55  1  0  0  0  0
 57 58  1  0  0  0  0
M  BCL ATM C_TeTeTeTe H_S N_TrTrTrPi2 O_Te2Te2TeTe C_TeTeTeTe H_S C_TrTrTrPi C_TrTrTrPi H_S C_TeTeTeTe H_S C_TeTeTeTe H_S O_Te2Te2TeTe H_S N_TrTrTrPi2 H_S O_Tr2Tr2TrPi C_TrTrTrPi H_S C_TeTeTeTe H_S H_S O_Te2Te2TeTe H_S C_TrTrTrPi O_Tr2TrTrPi2 O_Tr2Tr2TrPi P_TeTeTeTePi O_Tr2TrTrPi2 O_Te2Te2TeTe O_Tr2Tr2TrPi P_TeTeTeTePi O_Te2Te2TeTe O_Tr2Tr2TrPi O_Tr2TrTrPi2 C_TeTeTeTe H_S C_TeTeTeTe H_S O_Te2Te2TeTe H_S C_TeTeTeTe H_S O_Te2Te2TeTe H_S C_TeTeTeTe H_S C_TeTeTeTe H_S C_TeTeTeTe H_S H_S O_Te2Te2TeTe H_S O_Te2Te2TeTe O_Te2Te2TeTe H_S
M  BCL BND NonConjugatedSingleBond NonConjugatedSingleBond NonConjugatedSingleBondInRing NonConjugatedSingleBondInRing ConjugatedSingleBondInRing ConjugatedSingleBondInRing NonConjugatedSingleBondInRing NonConjugatedSingleBond NonConjugatedSingleBondInRing NonConjugatedSingleBond ConjugatedSingleBondInRing ConjugatedDoubleBond NonConjugatedSingleBond ConjugatedDoubleBondInRing NonConjugatedSingleBond NonConjugatedSingleBondInRing NonConjugatedSingleBond NonConjugatedSingleBond NonConjugatedSingleBond NonConjugatedSingleBond NonConjugatedSingleBond ConjugatedSingleBondInRing NonConjugatedSingleBond ConjugatedSingleBondInRing NonConjugatedSingleBond NonConjugatedSingleBond NonConjugatedSingleBond NonConjugatedSingleBond ConjugatedDoubleBond ConjugatedSingleBond ConjugatedSingleBond ConjugatedSingleBond ConjugatedDoubleBond ConjugatedSingleBond ConjugatedSingleBond ConjugatedDoubleBond ConjugatedSingleBond NonConjugatedSingleBond NonConjugatedSingleBond NonConjugatedSingleBondInRing NonConjugatedSingleBondInRing NonConjugatedSingleBond NonConjugatedSingleBond NonConjugatedSingleBondInRing NonConjugatedSingleBond NonConjugatedSingleBond NonConjugatedSingleBond NonConjugatedSingleBondInRing NonConjugatedSingleBondInRing NonConjugatedSingleBond NonConjugatedSingleBond NonConjugatedSingleBond NonConjugatedSingleBond NonConjugatedSingleBond NonConjugatedSingleBondInRing NonConjugatedSingleBond NonConjugatedSingleBond NonConjugatedSingleBond NonConjugatedSingleBond NonConjugatedSingleBond
M  BCL CHI   1   S   5   S  10   S  12   R  29   S  33   R  37   S  39   R  43   R  47   R  49   S
M  BCL DBI - Z - - -
M  END
> <ConfClashScore>
0 

> <ConfOneFourInteractionScore>
-0.978045 

> <ConfScore>
-0.0772088 

> <ConfScorePBest>
0.0113905 

> <ConfTolerance>
1.75215 

$$$$
ChEBI.****
  PyMOL2.5          3D                             0

 58 60  0  0  0  0  0  0  0  0999 V2000
   21.8425  -11.9530    3.5828 C   0  0  0  1  0  0  0  0  0  0  0  0
   22.1711  -12.1703    2.5880 H   0  0  0  1  0  0  0  0  0  0  0  0
   22.9089  -12.2909    4.5367 N   0  0  0  1  0  0  0  0  0  0  0  0
   21.4711  -10.5530    3.7049 O   0  0  0  1  0  0  0  0  0  0  0  0
   20.5647  -12.7254    3.9082 C   0  0  0  1  0  0  0  0  0  0  0  0
   19.9637  -12.8713    3.0351 H   0  0  0  1  0  0  0  0  0  0  0  0
   23.0483  -11.5532    5.6808 C   0  0  0  1  0  0  0  0  0  0  0  0
   23.7536  -13.3464    4.2652 C   0  0  0  1  0  0  0  0  0  0  0  0
   23.6026  -13.8807    3.3859 H   0  0  0  1  0  0  0  0  0  0  0  0
   20.1992  -10.4316    4.3064 C   0  0  0  1  0  0  0  0  0  0  0  0
   20.2205   -9.6921    5.0794 H   0  0  0  1  0  0  0  0  0  0  0  0
   19.8935  -11.7994    4.8895 C   0  0  0  1  0  0  0  0  0  0  0  0
   18.8389  -11.9762    4.9296 H   0  0  0  1  0  0  0  0  0  0  0  0
   20.8577  -13.9908    4.5024 O   0  0  0  1  0  0  0  0  0  0  0  0
   21.6975  -14.3148    4.1686 H   0  0  0  1  0  0  0  0  0  0  0  0
   24.0731  -11.9581    6.5082 N   0  0  0  1  0  0  0  0  0  0  0  0
   24.1905  -11.4518    7.3390 H   0  0  0  1  0  0  0  0  0  0  0  0
   22.3217  -10.6102    5.9476 O   0  0  0  1  0  0  0  0  0  0  0  0
   24.7610  -13.7253    5.0707 C   0  0  0  1  0  0  0  0  0  0  0  0
   25.3822  -14.5194    4.8157 H   0  0  0  1  0  0  0  0  0  0  0  0
   19.1859  -10.0625    3.2992 C   0  0  0  1  0  0  0  0  0  0  0  0
   18.2108  -10.1570    3.7295 H   0  0  0  1  0  0  0  0  0  0  0  0
   19.2702  -10.7182    2.4579 H   0  0  0  1  0  0  0  0  0  0  0  0
   20.4506  -11.9401    6.1971 O   0  0  0  1  0  0  0  0  0  0  0  0
   19.8696  -12.4816    6.7364 H   0  0  0  1  0  0  0  0  0  0  0  0
   24.9516  -12.9997    6.2925 C   0  0  0  1  0  0  0  0  0  0  0  0
   19.3835   -8.6945    2.8601 O   0  0  0  1  0  0  0  0  0  0  0  0
   25.8317  -13.2843    7.0880 O   0  0  0  1  0  0  0  0  0  0  0  0
   18.4085   -7.9556    1.8034 P   0  0  0  1  0  0  0  0  0  0  0  0
   18.4613   -8.8735    0.5060 O   0  0  0  1  0  0  0  0  0  0  0  0
   17.0672   -7.9740    2.4281 O   0  0  0  0  0  0  0  0  0  0  0  0
   18.9706   -6.6946    1.3559 O   0  0  0  1  0  0  0  0  0  0  0  0
   17.5599   -9.2295   -0.7113 P   0  0  0  1  0  0  0  0  0  0  0  0
   16.3797   -9.9997   -0.2004 O   0  0  0  0  0  0  0  0  0  0  0  0
   17.2932   -8.0539   -1.5822 O   0  0  0  1  0  0  0  0  0  0  0  0
   18.4900  -10.1848   -1.5406 O   0  0  0  1  0  0  0  0  0  0  0  0
   18.0047  -11.3232   -2.2508 C   0  0  0  1  0  0  0  0  0  0  0  0
   16.9908  -11.5152   -1.9678 H   0  0  0  1  0  0  0  0  0  0  0  0
   18.8666  -12.5404   -1.9090 C   0  0  0  1  0  0  0  0  0  0  0  0
   18.7563  -12.7704   -0.8699 H   0  0  0  1  0  0  0  0  0  0  0  0
   20.2352  -12.2419   -2.1886 O   0  0  0  1  0  0  0  0  0  0  0  0
   20.7867  -12.9766   -1.9099 H   0  0  0  1  0  0  0  0  0  0  0  0
   18.4068  -13.3991   -4.2229 C   0  0  0  1  0  0  0  0  0  0  0  0
   19.4050  -13.2308   -4.5695 H   0  0  0  1  0  0  0  0  0  0  0  0
   17.8290  -14.4884   -4.9439 O   0  0  0  1  0  0  0  0  0  0  0  0
   16.9086  -14.2937   -5.1353 H   0  0  0  1  0  0  0  0  0  0  0  0
   18.4375  -13.7365   -2.7338 C   0  0  0  1  0  0  0  0  0  0  0  0
   19.1281  -14.5376   -2.5720 H   0  0  0  1  0  0  0  0  0  0  0  0
   17.5728  -12.1416   -4.4512 C   0  0  0  1  0  0  0  0  0  0  0  0
   16.5566  -12.3396   -4.1809 H   0  0  0  1  0  0  0  0  0  0  0  0
   17.6404  -11.7611   -5.9023 C   0  0  0  1  0  0  0  0  0  0  0  0
   17.3345  -12.5923   -6.5026 H   0  0  0  1  0  0  0  0  0  0  0  0
   18.6449  -11.4904   -6.1525 H   0  0  0  1  0  0  0  0  0  0  0  0
   16.7785  -10.6579   -6.1485 O   0  0  0  1  0  0  0  0  0  0  0  0
   16.8849  -10.3645   -7.0564 H   0  0  0  1  0  0  0  0  0  0  0  0
   18.0652  -11.0659   -3.6625 O   0  0  0  1  0  0  0  0  0  0  0  0
   17.1316  -14.1421   -2.3213 O   0  0  0  1  0  0  0  0  0  0  0  0
   16.4796  -13.7956   -2.9350 H   0  0  0  1  0  0  0  0  0  0  0  0
  1  2  1  0  0  0  0
  1  3  1  0  0  0  0
  1  4  1  0  0  0  0
  1  5  1  0  0  0  0
  3  7  1  0  0  0  0
  3  8  1  0  0  0  0
  4 10  1  0  0  0  0
  5  6  1  0  0  0  0
  5 12  1  0  0  0  0
  5 14  1  0  0  0  0
  7 16  1  0  0  0  0
  7 18  2  0  0  0  0
  8  9  1  0  0  0  0
  8 19  2  0  0  0  0
 10 11  1  0  0  0  0
 10 12  1  0  0  0  0
 10 21  1  0  0  0  0
 12 13  1  0  0  0  0
 12 24  1  0  0  0  0
 14 15  1  0  0  0  0
 16 17  1  0  0  0  0
 16 26  1  0  0  0  0
 19 20  1  0  0  0  0
 19 26  1  0  0  0  0
 21 22  1  0  0  0  0
 21 23  1  0  0  0  0
 21 27  1  0  0  0  0
 24 25  1  0  0  0  0
 26 28  2  0  0  0  0
 27 29  1  0  0  0  0
 29 30  1  0  0  0  0
 29 31  1  0  0  0  0
 29 32  2  0  0  0  0
 30 33  1  0  0  0  0
 33 34  1  0  0  0  0
 33 35  2  0  0  0  0
 33 36  1  0  0  0  0
 36 37  1  0  0  0  0
 37 38  1  0  0  0  0
 37 39  1  0  0  0  0
 37 56  1  0  0  0  0
 39 40  1  0  0  0  0
 39 41  1  0  0  0  0
 39 47  1  0  0  0  0
 41 42  1  0  0  0  0
 43 44  1  0  0  0  0
 43 45  1  0  0  0  0
 43 47  1  0  0  0  0
 43 49  1  0  0  0  0
 45 46  1  0  0  0  0
 47 48  1  0  0  0  0
 47 57  1  0  0  0  0
 49 50  1  0  0  0  0
 49 51  1  0  0  0  0
 49 56  1  0  0  0  0
 51 52  1  0  0  0  0
 51 53  1  0  0  0  0
 51 54  1  0  0  0  0
 54 55  1  0  0  0  0
 57 58  1  0  0  0  0
M  BCL ATM C_TeTeTeTe H_S N_TrTrTrPi2 O_Te2Te2TeTe C_TeTeTeTe H_S C_TrTrTrPi C_TrTrTrPi H_S C_TeTeTeTe H_S C_TeTeTeTe H_S O_Te2Te2TeTe H_S N_TrTrTrPi2 H_S O_Tr2Tr2TrPi C_TrTrTrPi H_S C_TeTeTeTe H_S H_S O_Te2Te2TeTe H_S C_TrTrTrPi O_Tr2TrTrPi2 O_Tr2Tr2TrPi P_TeTeTeTePi O_Tr2TrTrPi2 O_Te2Te2TeTe O_Tr2Tr2TrPi P_TeTeTeTePi O_Te2Te2TeTe O_Tr2Tr2TrPi O_Tr2TrTrPi2 C_TeTeTeTe H_S C_TeTeTeTe H_S O_Te2Te2TeTe H_S C_TeTeTeTe H_S O_Te2Te2TeTe H_S C_TeTeTeTe H_S C_TeTeTeTe H_S C_TeTeTeTe H_S H_S O_Te2Te2TeTe H_S O_Te2Te2TeTe O_Te2Te2TeTe H_S
M  BCL BND NonConjugatedSingleBond NonConjugatedSingleBond NonConjugatedSingleBondInRing NonConjugatedSingleBondInRing ConjugatedSingleBondInRing ConjugatedSingleBondInRing NonConjugatedSingleBondInRing NonConjugatedSingleBond NonConjugatedSingleBondInRing NonConjugatedSingleBond ConjugatedSingleBondInRing ConjugatedDoubleBond NonConjugatedSingleBond ConjugatedDoubleBondInRing NonConjugatedSingleBond NonConjugatedSingleBondInRing NonConjugatedSingleBond NonConjugatedSingleBond NonConjugatedSingleBond NonConjugatedSingleBond NonConjugatedSingleBond ConjugatedSingleBondInRing NonConjugatedSingleBond ConjugatedSingleBondInRing NonConjugatedSingleBond NonConjugatedSingleBond NonConjugatedSingleBond NonConjugatedSingleBond ConjugatedDoubleBond ConjugatedSingleBond ConjugatedSingleBond ConjugatedSingleBond ConjugatedDoubleBond ConjugatedSingleBond ConjugatedSingleBond ConjugatedDoubleBond ConjugatedSingleBond NonConjugatedSingleBond NonConjugatedSingleBond NonConjugatedSingleBondInRing NonConjugatedSingleBondInRing NonConjugatedSingleBond NonConjugatedSingleBond NonConjugatedSingleBondInRing NonConjugatedSingleBond NonConjugatedSingleBond NonConjugatedSingleBond NonConjugatedSingleBondInRing NonConjugatedSingleBondInRing NonConjugatedSingleBond NonConjugatedSingleBond NonConjugatedSingleBond NonConjugatedSingleBond NonConjugatedSingleBond NonConjugatedSingleBondInRing NonConjugatedSingleBond NonConjugatedSingleBond NonConjugatedSingleBond NonConjugatedSingleBond NonConjugatedSingleBond
M  BCL CHI   1   S   5   S  10   S  12   R  29   S  33   R  37   S  39   R  43   R  47   R  49   S
M  BCL DBI - Z - - -
M  END
> <ConfClashScore>
0 

> <ConfOneFourInteractionScore>
-0.978243 

> <ConfScore>
-0.0763693 

> <ConfScorePBest>
0.0112875 

> <ConfTolerance>
1.68226 

$$$$
ChEBI.****
  PyMOL2.5          3D                             0

 58 60  0  0  0  0  0  0  0  0999 V2000
   24.3799   -6.7547    3.4429 C   0  0  0  1  0  0  0  0  0  0  0  0
   24.1251   -5.7907    3.0547 H   0  0  0  1  0  0  0  0  0  0  0  0
   24.4483   -6.6907    4.9084 N   0  0  0  1  0  0  0  0  0  0  0  0
   23.4097   -7.7579    3.0138 O   0  0  0  1  0  0  0  0  0  0  0  0
   25.6923   -7.2341    2.8663 C   0  0  0  1  0  0  0  0  0  0  0  0
   26.3503   -6.4116    2.6779 H   0  0  0  1  0  0  0  0  0  0  0  0
   24.9476   -5.5590    5.5159 C   0  0  0  1  0  0  0  0  0  0  0  0
   24.0132   -7.7604    5.6540 C   0  0  0  1  0  0  0  0  0  0  0  0
   23.6434   -8.5953    5.1563 H   0  0  0  1  0  0  0  0  0  0  0  0
   23.8634   -8.4251    1.8699 C   0  0  0  1  0  0  0  0  0  0  0  0
   23.8873   -9.4795    2.0500 H   0  0  0  1  0  0  0  0  0  0  0  0
   25.2795   -7.9173    1.5557 C   0  0  0  1  0  0  0  0  0  0  0  0
   25.2678   -7.2198    0.7443 H   0  0  0  1  0  0  0  0  0  0  0  0
   26.3283   -8.1615    3.7469 O   0  0  0  1  0  0  0  0  0  0  0  0
   27.1295   -7.7690    4.1014 H   0  0  0  1  0  0  0  0  0  0  0  0
   24.9762   -5.5821    6.8892 N   0  0  0  1  0  0  0  0  0  0  0  0
   25.3282   -4.7857    7.3387 H   0  0  0  1  0  0  0  0  0  0  0  0
   25.3393   -4.5977    4.8749 O   0  0  0  1  0  0  0  0  0  0  0  0
   24.0449   -7.7754    7.0114 C   0  0  0  1  0  0  0  0  0  0  0  0
   23.7072   -8.6025    7.5437 H   0  0  0  1  0  0  0  0  0  0  0  0
   22.9546   -8.1361    0.7207 C   0  0  0  1  0  0  0  0  0  0  0  0
   23.0134   -7.0997    0.4614 H   0  0  0  1  0  0  0  0  0  0  0  0
   21.9467   -8.3822    0.9823 H   0  0  0  1  0  0  0  0  0  0  0  0
   26.1566   -9.0000    1.2411 O   0  0  0  1  0  0  0  0  0  0  0  0
   27.0573   -8.6743    1.1765 H   0  0  0  1  0  0  0  0  0  0  0  0
   24.5573   -6.6178    7.6941 C   0  0  0  1  0  0  0  0  0  0  0  0
   23.3805   -8.9377   -0.3808 O   0  0  0  1  0  0  0  0  0  0  0  0
   24.6172   -6.5573    8.9112 O   0  0  0  1  0  0  0  0  0  0  0  0
   22.7154   -9.0649   -1.8542 P   0  0  0  1  0  0  0  0  0  0  0  0
   21.2218   -9.4373   -1.4200 O   0  0  0  1  0  0  0  0  0  0  0  0
   22.5942   -7.7139   -2.4548 O   0  0  0  0  0  0  0  0  0  0  0  0
   23.3328  -10.1728   -2.6252 O   0  0  0  1  0  0  0  0  0  0  0  0
   19.7511   -9.2094   -2.0568 P   0  0  0  1  0  0  0  0  0  0  0  0
   19.1482   -7.9240   -1.5969 O   0  0  0  0  0  0  0  0  0  0  0  0
   19.9290   -9.4167   -3.5136 O   0  0  0  1  0  0  0  0  0  0  0  0
   18.8568  -10.3228   -1.4042 O   0  0  0  1  0  0  0  0  0  0  0  0
   18.1844  -11.3266   -2.1616 C   0  0  0  1  0  0  0  0  0  0  0  0
   17.1530  -11.3568   -1.8785 H   0  0  0  1  0  0  0  0  0  0  0  0
   18.8271  -12.6873   -1.8851 C   0  0  0  1  0  0  0  0  0  0  0  0
   18.6805  -12.9444   -0.8568 H   0  0  0  1  0  0  0  0  0  0  0  0
   20.2261  -12.6128   -2.1631 O   0  0  0  1  0  0  0  0  0  0  0  0
   20.4489  -11.7242   -2.4503 H   0  0  0  1  0  0  0  0  0  0  0  0
   18.2250  -13.3444   -4.2321 C   0  0  0  1  0  0  0  0  0  0  0  0
   19.2368  -13.3319   -4.5798 H   0  0  0  1  0  0  0  0  0  0  0  0
   17.4694  -14.2841   -4.9977 O   0  0  0  1  0  0  0  0  0  0  0  0
   17.9560  -15.1091   -5.0632 H   0  0  0  1  0  0  0  0  0  0  0  0
   18.1997  -13.7525   -2.7607 C   0  0  0  1  0  0  0  0  0  0  0  0
   18.7441  -14.6661   -2.6428 H   0  0  0  1  0  0  0  0  0  0  0  0
   17.6168  -11.9541   -4.3938 C   0  0  0  1  0  0  0  0  0  0  0  0
   16.5821  -11.9892   -4.1235 H   0  0  0  1  0  0  0  0  0  0  0  0
   17.7464  -11.5221   -5.8260 C   0  0  0  1  0  0  0  0  0  0  0  0
   17.2376  -10.5910   -5.9641 H   0  0  0  1  0  0  0  0  0  0  0  0
   17.3115  -12.2644   -6.4622 H   0  0  0  1  0  0  0  0  0  0  0  0
   19.1200  -11.3632   -6.1557 O   0  0  0  1  0  0  0  0  0  0  0  0
   19.3293  -11.8997   -6.9238 H   0  0  0  1  0  0  0  0  0  0  0  0
   18.2861  -11.0165   -3.5603 O   0  0  0  1  0  0  0  0  0  0  0  0
   16.8356  -13.9508   -2.3529 O   0  0  0  1  0  0  0  0  0  0  0  0
   16.4166  -14.5889   -2.9349 H   0  0  0  1  0  0  0  0  0  0  0  0
  1  2  1  0  0  0  0
  1  3  1  0  0  0  0
  1  4  1  0  0  0  0
  1  5  1  0  0  0  0
  3  7  1  0  0  0  0
  3  8  1  0  0  0  0
  4 10  1  0  0  0  0
  5  6  1  0  0  0  0
  5 12  1  0  0  0  0
  5 14  1  0  0  0  0
  7 16  1  0  0  0  0
  7 18  2  0  0  0  0
  8  9  1  0  0  0  0
  8 19  2  0  0  0  0
 10 11  1  0  0  0  0
 10 12  1  0  0  0  0
 10 21  1  0  0  0  0
 12 13  1  0  0  0  0
 12 24  1  0  0  0  0
 14 15  1  0  0  0  0
 16 17  1  0  0  0  0
 16 26  1  0  0  0  0
 19 20  1  0  0  0  0
 19 26  1  0  0  0  0
 21 22  1  0  0  0  0
 21 23  1  0  0  0  0
 21 27  1  0  0  0  0
 24 25  1  0  0  0  0
 26 28  2  0  0  0  0
 27 29  1  0  0  0  0
 29 30  1  0  0  0  0
 29 31  1  0  0  0  0
 29 32  2  0  0  0  0
 30 33  1  0  0  0  0
 33 34  1  0  0  0  0
 33 35  2  0  0  0  0
 33 36  1  0  0  0  0
 36 37  1  0  0  0  0
 37 38  1  0  0  0  0
 37 39  1  0  0  0  0
 37 56  1  0  0  0  0
 39 40  1  0  0  0  0
 39 41  1  0  0  0  0
 39 47  1  0  0  0  0
 41 42  1  0  0  0  0
 43 44  1  0  0  0  0
 43 45  1  0  0  0  0
 43 47  1  0  0  0  0
 43 49  1  0  0  0  0
 45 46  1  0  0  0  0
 47 48  1  0  0  0  0
 47 57  1  0  0  0  0
 49 50  1  0  0  0  0
 49 51  1  0  0  0  0
 49 56  1  0  0  0  0
 51 52  1  0  0  0  0
 51 53  1  0  0  0  0
 51 54  1  0  0  0  0
 54 55  1  0  0  0  0
 57 58  1  0  0  0  0
M  BCL ATM C_TeTeTeTe H_S N_TrTrTrPi2 O_Te2Te2TeTe C_TeTeTeTe H_S C_TrTrTrPi C_TrTrTrPi H_S C_TeTeTeTe H_S C_TeTeTeTe H_S O_Te2Te2TeTe H_S N_TrTrTrPi2 H_S O_Tr2Tr2TrPi C_TrTrTrPi H_S C_TeTeTeTe H_S H_S O_Te2Te2TeTe H_S C_TrTrTrPi O_Tr2TrTrPi2 O_Tr2Tr2TrPi P_TeTeTeTePi O_Tr2TrTrPi2 O_Te2Te2TeTe O_Tr2Tr2TrPi P_TeTeTeTePi O_Te2Te2TeTe O_Tr2Tr2TrPi O_Tr2TrTrPi2 C_TeTeTeTe H_S C_TeTeTeTe H_S O_Te2Te2TeTe H_S C_TeTeTeTe H_S O_Te2Te2TeTe H_S C_TeTeTeTe H_S C_TeTeTeTe H_S C_TeTeTeTe H_S H_S O_Te2Te2TeTe H_S O_Te2Te2TeTe O_Te2Te2TeTe H_S
M  BCL BND NonConjugatedSingleBond NonConjugatedSingleBond NonConjugatedSingleBondInRing NonConjugatedSingleBondInRing ConjugatedSingleBondInRing ConjugatedSingleBondInRing NonConjugatedSingleBondInRing NonConjugatedSingleBond NonConjugatedSingleBondInRing NonConjugatedSingleBond ConjugatedSingleBondInRing ConjugatedDoubleBond NonConjugatedSingleBond ConjugatedDoubleBondInRing NonConjugatedSingleBond NonConjugatedSingleBondInRing NonConjugatedSingleBond NonConjugatedSingleBond NonConjugatedSingleBond NonConjugatedSingleBond NonConjugatedSingleBond ConjugatedSingleBondInRing NonConjugatedSingleBond ConjugatedSingleBondInRing NonConjugatedSingleBond NonConjugatedSingleBond NonConjugatedSingleBond NonConjugatedSingleBond ConjugatedDoubleBond ConjugatedSingleBond ConjugatedSingleBond ConjugatedSingleBond ConjugatedDoubleBond ConjugatedSingleBond ConjugatedSingleBond ConjugatedDoubleBond ConjugatedSingleBond NonConjugatedSingleBond NonConjugatedSingleBond NonConjugatedSingleBondInRing NonConjugatedSingleBondInRing NonConjugatedSingleBond NonConjugatedSingleBond NonConjugatedSingleBondInRing NonConjugatedSingleBond NonConjugatedSingleBond NonConjugatedSingleBond NonConjugatedSingleBondInRing NonConjugatedSingleBondInRing NonConjugatedSingleBond NonConjugatedSingleBond NonConjugatedSingleBond NonConjugatedSingleBond NonConjugatedSingleBond NonConjugatedSingleBondInRing NonConjugatedSingleBond NonConjugatedSingleBond NonConjugatedSingleBond NonConjugatedSingleBond NonConjugatedSingleBond
M  BCL CHI   1   S   5   S  10   S  12   R  29   S  33   R  37   S  39   R  43   R  47   R  49   S
M  BCL DBI - Z - - -
M  END
> <ConfClashScore>
0.000109258 

> <ConfOneFourInteractionScore>
-0.975978 

> <ConfScore>
-0.0717925 

> <ConfScorePBest>
0.0111845 

> <ConfTolerance>
1.56422 

$$$$
ChEBI.****
  PyMOL2.5          3D                             0

 58 60  0  0  0  0  0  0  0  0999 V2000
   23.5067   -4.3890    1.1356 C   0  0  0  1  0  0  0  0  0  0  0  0
   23.2682   -3.4992    0.5913 H   0  0  0  1  0  0  0  0  0  0  0  0
   24.3808   -4.0538    2.2612 N   0  0  0  1  0  0  0  0  0  0  0  0
   22.3283   -5.0162    1.5959 O   0  0  0  1  0  0  0  0  0  0  0  0
   24.1780   -5.4026    0.2266 C   0  0  0  1  0  0  0  0  0  0  0  0
   23.7949   -5.3419   -0.7706 H   0  0  0  1  0  0  0  0  0  0  0  0
   25.5640   -3.3884    2.0134 C   0  0  0  1  0  0  0  0  0  0  0  0
   24.0007   -4.4083    3.5191 C   0  0  0  1  0  0  0  0  0  0  0  0
   23.0954   -4.9038    3.6474 H   0  0  0  1  0  0  0  0  0  0  0  0
   22.3679   -6.4410    1.3105 C   0  0  0  1  0  0  0  0  0  0  0  0
   22.1264   -7.0075    2.1856 H   0  0  0  1  0  0  0  0  0  0  0  0
   23.8073   -6.7117    0.8745 C   0  0  0  1  0  0  0  0  0  0  0  0
   23.8581   -7.5210    0.1765 H   0  0  0  1  0  0  0  0  0  0  0  0
   25.5944   -5.2193    0.2052 O   0  0  0  1  0  0  0  0  0  0  0  0
   25.9785   -5.5978    0.9994 H   0  0  0  1  0  0  0  0  0  0  0  0
   26.3297   -3.1394    3.1450 N   0  0  0  1  0  0  0  0  0  0  0  0
   27.1869   -2.6826    3.0145 H   0  0  0  1  0  0  0  0  0  0  0  0
   25.9086   -3.0474    0.8939 O   0  0  0  1  0  0  0  0  0  0  0  0
   24.7543   -4.1410    4.6057 C   0  0  0  1  0  0  0  0  0  0  0  0
   24.4383   -4.4152    5.5579 H   0  0  0  1  0  0  0  0  0  0  0  0
   21.4131   -6.7847    0.2150 C   0  0  0  1  0  0  0  0  0  0  0  0
   21.5498   -7.8038   -0.0812 H   0  0  0  1  0  0  0  0  0  0  0  0
   21.5769   -6.1434   -0.6257 H   0  0  0  1  0  0  0  0  0  0  0  0
   24.6467   -6.9949    1.9949 O   0  0  0  1  0  0  0  0  0  0  0  0
   25.0541   -6.1823    2.3036 H   0  0  0  1  0  0  0  0  0  0  0  0
   25.9938   -3.4729    4.4091 C   0  0  0  1  0  0  0  0  0  0  0  0
   20.0723   -6.5955    0.7253 O   0  0  0  1  0  0  0  0  0  0  0  0
   26.7280   -3.2102    5.3499 O   0  0  0  1  0  0  0  0  0  0  0  0
   18.8188   -7.0381   -0.1166 P   0  0  0  1  0  0  0  0  0  0  0  0
   18.4024   -8.5208    0.3299 O   0  0  0  1  0  0  0  0  0  0  0  0
   17.7159   -6.0510    0.2773 O   0  0  0  0  0  0  0  0  0  0  0  0
   19.0933   -7.0699   -1.5695 O   0  0  0  1  0  0  0  0  0  0  0  0
   17.4765   -9.6093   -0.4069 P   0  0  0  1  0  0  0  0  0  0  0  0
   17.0856  -10.6614    0.5576 O   0  0  0  0  0  0  0  0  0  0  0  0
   16.4175   -8.8400   -1.0951 O   0  0  0  1  0  0  0  0  0  0  0  0
   18.4580  -10.2744   -1.4581 O   0  0  0  1  0  0  0  0  0  0  0  0
   17.9782  -11.3346   -2.2532 C   0  0  0  1  0  0  0  0  0  0  0  0
   16.9495  -11.5171   -2.0221 H   0  0  0  1  0  0  0  0  0  0  0  0
   18.7951  -12.5958   -1.9649 C   0  0  0  1  0  0  0  0  0  0  0  0
   18.6385  -12.8931   -0.9490 H   0  0  0  1  0  0  0  0  0  0  0  0
   20.1806  -12.3172   -2.1720 O   0  0  0  1  0  0  0  0  0  0  0  0
   20.6613  -13.1418   -2.2751 H   0  0  0  1  0  0  0  0  0  0  0  0
   18.4042  -13.2812   -4.3483 C   0  0  0  1  0  0  0  0  0  0  0  0
   19.4191  -13.1175   -4.6450 H   0  0  0  1  0  0  0  0  0  0  0  0
   17.8273  -14.3027   -5.1645 O   0  0  0  1  0  0  0  0  0  0  0  0
   16.9663  -14.5440   -4.8150 H   0  0  0  1  0  0  0  0  0  0  0  0
   18.3684  -13.7203   -2.8860 C   0  0  0  1  0  0  0  0  0  0  0  0
   19.0316  -14.5495   -2.7546 H   0  0  0  1  0  0  0  0  0  0  0  0
   17.6118  -11.9883   -4.5196 C   0  0  0  1  0  0  0  0  0  0  0  0
   16.5812  -12.1759   -4.3016 H   0  0  0  1  0  0  0  0  0  0  0  0
   17.7467  -11.5074   -5.9496 C   0  0  0  1  0  0  0  0  0  0  0  0
   17.2102  -10.5921   -6.0889 H   0  0  0  1  0  0  0  0  0  0  0  0
   17.3759  -12.2458   -6.6294 H   0  0  0  1  0  0  0  0  0  0  0  0
   19.1557  -11.3003   -6.1511 O   0  0  0  1  0  0  0  0  0  0  0  0
   19.4434  -10.5379   -5.6437 H   0  0  0  1  0  0  0  0  0  0  0  0
   18.1001  -10.9832   -3.6404 O   0  0  0  1  0  0  0  0  0  0  0  0
   17.0375  -14.1165   -2.5515 O   0  0  0  1  0  0  0  0  0  0  0  0
   16.9358  -14.1240   -1.5969 H   0  0  0  1  0  0  0  0  0  0  0  0
  1  2  1  0  0  0  0
  1  3  1  0  0  0  0
  1  4  1  0  0  0  0
  1  5  1  0  0  0  0
  3  7  1  0  0  0  0
  3  8  1  0  0  0  0
  4 10  1  0  0  0  0
  5  6  1  0  0  0  0
  5 12  1  0  0  0  0
  5 14  1  0  0  0  0
  7 16  1  0  0  0  0
  7 18  2  0  0  0  0
  8  9  1  0  0  0  0
  8 19  2  0  0  0  0
 10 11  1  0  0  0  0
 10 12  1  0  0  0  0
 10 21  1  0  0  0  0
 12 13  1  0  0  0  0
 12 24  1  0  0  0  0
 14 15  1  0  0  0  0
 16 17  1  0  0  0  0
 16 26  1  0  0  0  0
 19 20  1  0  0  0  0
 19 26  1  0  0  0  0
 21 22  1  0  0  0  0
 21 23  1  0  0  0  0
 21 27  1  0  0  0  0
 24 25  1  0  0  0  0
 26 28  2  0  0  0  0
 27 29  1  0  0  0  0
 29 30  1  0  0  0  0
 29 31  1  0  0  0  0
 29 32  2  0  0  0  0
 30 33  1  0  0  0  0
 33 34  1  0  0  0  0
 33 35  2  0  0  0  0
 33 36  1  0  0  0  0
 36 37  1  0  0  0  0
 37 38  1  0  0  0  0
 37 39  1  0  0  0  0
 37 56  1  0  0  0  0
 39 40  1  0  0  0  0
 39 41  1  0  0  0  0
 39 47  1  0  0  0  0
 41 42  1  0  0  0  0
 43 44  1  0  0  0  0
 43 45  1  0  0  0  0
 43 47  1  0  0  0  0
 43 49  1  0  0  0  0
 45 46  1  0  0  0  0
 47 48  1  0  0  0  0
 47 57  1  0  0  0  0
 49 50  1  0  0  0  0
 49 51  1  0  0  0  0
 49 56  1  0  0  0  0
 51 52  1  0  0  0  0
 51 53  1  0  0  0  0
 51 54  1  0  0  0  0
 54 55  1  0  0  0  0
 57 58  1  0  0  0  0
M  BCL ATM C_TeTeTeTe H_S N_TrTrTrPi2 O_Te2Te2TeTe C_TeTeTeTe H_S C_TrTrTrPi C_TrTrTrPi H_S C_TeTeTeTe H_S C_TeTeTeTe H_S O_Te2Te2TeTe H_S N_TrTrTrPi2 H_S O_Tr2Tr2TrPi C_TrTrTrPi H_S C_TeTeTeTe H_S H_S O_Te2Te2TeTe H_S C_TrTrTrPi O_Tr2TrTrPi2 O_Tr2Tr2TrPi P_TeTeTeTePi O_Tr2TrTrPi2 O_Te2Te2TeTe O_Tr2Tr2TrPi P_TeTeTeTePi O_Te2Te2TeTe O_Tr2Tr2TrPi O_Tr2TrTrPi2 C_TeTeTeTe H_S C_TeTeTeTe H_S O_Te2Te2TeTe H_S C_TeTeTeTe H_S O_Te2Te2TeTe H_S C_TeTeTeTe H_S C_TeTeTeTe H_S C_TeTeTeTe H_S H_S O_Te2Te2TeTe H_S O_Te2Te2TeTe O_Te2Te2TeTe H_S
M  BCL BND NonConjugatedSingleBond NonConjugatedSingleBond NonConjugatedSingleBondInRing NonConjugatedSingleBondInRing ConjugatedSingleBondInRing ConjugatedSingleBondInRing NonConjugatedSingleBondInRing NonConjugatedSingleBond NonConjugatedSingleBondInRing NonConjugatedSingleBond ConjugatedSingleBondInRing ConjugatedDoubleBond NonConjugatedSingleBond ConjugatedDoubleBondInRing NonConjugatedSingleBond NonConjugatedSingleBondInRing NonConjugatedSingleBond NonConjugatedSingleBond NonConjugatedSingleBond NonConjugatedSingleBond NonConjugatedSingleBond ConjugatedSingleBondInRing NonConjugatedSingleBond ConjugatedSingleBondInRing NonConjugatedSingleBond NonConjugatedSingleBond NonConjugatedSingleBond NonConjugatedSingleBond ConjugatedDoubleBond ConjugatedSingleBond ConjugatedSingleBond ConjugatedSingleBond ConjugatedDoubleBond ConjugatedSingleBond ConjugatedSingleBond ConjugatedDoubleBond ConjugatedSingleBond NonConjugatedSingleBond NonConjugatedSingleBond NonConjugatedSingleBondInRing NonConjugatedSingleBondInRing NonConjugatedSingleBond NonConjugatedSingleBond NonConjugatedSingleBondInRing NonConjugatedSingleBond NonConjugatedSingleBond NonConjugatedSingleBond NonConjugatedSingleBondInRing NonConjugatedSingleBondInRing NonConjugatedSingleBond NonConjugatedSingleBond NonConjugatedSingleBond NonConjugatedSingleBond NonConjugatedSingleBond NonConjugatedSingleBondInRing NonConjugatedSingleBond NonConjugatedSingleBond NonConjugatedSingleBond NonConjugatedSingleBond NonConjugatedSingleBond
M  BCL CHI   1   S   5   S  10   S  12   R  29   S  33   R  37   S  39   R  43   R  47   R  49   S
M  BCL DBI - Z - - -
M  END
> <ConfClashScore>
0 

> <ConfOneFourInteractionScore>
-0.980187 

> <ConfScore>
-0.0707557 

> <ConfScorePBest>
0.0110815 

> <ConfTolerance>
1.58201 

$$$$
ChEBI.****
  PyMOL2.5          3D                             0

 58 60  0  0  0  0  0  0  0  0999 V2000
   14.2366   -6.4693   -0.5284 C   0  0  0  1  0  0  0  0  0  0  0  0
   13.4736   -6.8814   -1.1552 H   0  0  0  1  0  0  0  0  0  0  0  0
   14.4287   -5.0544   -0.8574 N   0  0  0  1  0  0  0  0  0  0  0  0
   13.8896   -6.6164    0.8325 O   0  0  0  1  0  0  0  0  0  0  0  0
   15.5358   -7.2350   -0.7014 C   0  0  0  1  0  0  0  0  0  0  0  0
   15.3518   -8.2713   -0.8939 H   0  0  0  1  0  0  0  0  0  0  0  0
   14.2307   -4.6311   -2.1518 C   0  0  0  1  0  0  0  0  0  0  0  0
   14.7997   -4.1854    0.1250 C   0  0  0  1  0  0  0  0  0  0  0  0
   14.9629   -4.5548    1.0834 H   0  0  0  1  0  0  0  0  0  0  0  0
   15.0172   -7.1339    1.5900 C   0  0  0  1  0  0  0  0  0  0  0  0
   15.1881   -6.5407    2.4639 H   0  0  0  1  0  0  0  0  0  0  0  0
   16.2057   -7.0390    0.6342 C   0  0  0  1  0  0  0  0  0  0  0  0
   16.9243   -7.8080    0.8272 H   0  0  0  1  0  0  0  0  0  0  0  0
   16.3224   -6.6858   -1.7596 O   0  0  0  1  0  0  0  0  0  0  0  0
   17.2084   -7.0537   -1.7245 H   0  0  0  1  0  0  0  0  0  0  0  0
   14.4021   -3.2759   -2.3776 N   0  0  0  1  0  0  0  0  0  0  0  0
   14.2739   -2.9495   -3.2927 H   0  0  0  1  0  0  0  0  0  0  0  0
   13.9231   -5.4026   -3.0454 O   0  0  0  1  0  0  0  0  0  0  0  0
   14.9612   -2.8829   -0.0943 C   0  0  0  1  0  0  0  0  0  0  0  0
   15.2467   -2.2586    0.6869 H   0  0  0  1  0  0  0  0  0  0  0  0
   14.7757   -8.5523    1.9897 C   0  0  0  1  0  0  0  0  0  0  0  0
   13.9698   -8.6009    2.6919 H   0  0  0  1  0  0  0  0  0  0  0  0
   15.6598   -8.9619    2.4319 H   0  0  0  1  0  0  0  0  0  0  0  0
   16.8402   -5.7620    0.7167 O   0  0  0  1  0  0  0  0  0  0  0  0
   17.6623   -5.8436    1.2056 H   0  0  0  1  0  0  0  0  0  0  0  0
   14.7444   -2.3368   -1.3980 C   0  0  0  1  0  0  0  0  0  0  0  0
   14.4336   -9.2934    0.7949 O   0  0  0  1  0  0  0  0  0  0  0  0
   14.8497   -1.1452   -1.6377 O   0  0  0  1  0  0  0  0  0  0  0  0
   15.3556  -10.4843    0.2817 P   0  0  0  1  0  0  0  0  0  0  0  0
   16.7715   -9.7594   -0.0029 O   0  0  0  1  0  0  0  0  0  0  0  0
   15.5970  -11.3540    1.4597 O   0  0  0  0  0  0  0  0  0  0  0  0
   14.8051  -11.0717   -0.9530 O   0  0  0  1  0  0  0  0  0  0  0  0
   18.3253  -10.1386    0.0846 P   0  0  0  1  0  0  0  0  0  0  0  0
   19.1644   -8.9833    0.4729 O   0  0  0  0  0  0  0  0  0  0  0  0
   18.3463  -11.3900    0.8722 O   0  0  0  1  0  0  0  0  0  0  0  0
   18.7283  -10.3888   -1.4158 O   0  0  0  1  0  0  0  0  0  0  0  0
   18.1278  -11.4683   -2.1773 C   0  0  0  1  0  0  0  0  0  0  0  0
   17.1100  -11.5969   -1.8730 H   0  0  0  1  0  0  0  0  0  0  0  0
   18.9021  -12.7628   -1.9208 C   0  0  0  1  0  0  0  0  0  0  0  0
   18.8022  -13.0356   -0.8910 H   0  0  0  1  0  0  0  0  0  0  0  0
   20.2816  -12.5552   -2.2275 O   0  0  0  1  0  0  0  0  0  0  0  0
   20.5857  -11.7483   -1.8056 H   0  0  0  1  0  0  0  0  0  0  0  0
   18.3154  -13.4671   -4.2581 C   0  0  0  1  0  0  0  0  0  0  0  0
   19.3140  -13.3577   -4.6266 H   0  0  0  1  0  0  0  0  0  0  0  0
   17.6362  -14.4720   -5.0124 O   0  0  0  1  0  0  0  0  0  0  0  0
   17.1286  -14.0577   -5.7141 H   0  0  0  1  0  0  0  0  0  0  0  0
   18.3600  -13.8801   -2.7885 C   0  0  0  1  0  0  0  0  0  0  0  0
   18.9908  -14.7383   -2.6865 H   0  0  0  1  0  0  0  0  0  0  0  0
   17.5750  -12.1403   -4.4002 C   0  0  0  1  0  0  0  0  0  0  0  0
   16.5542  -12.2741   -4.1087 H   0  0  0  1  0  0  0  0  0  0  0  0
   17.6328  -11.6937   -5.8327 C   0  0  0  1  0  0  0  0  0  0  0  0
   17.1969  -12.4451   -6.4574 H   0  0  0  1  0  0  0  0  0  0  0  0
   18.6531  -11.5409   -6.1167 H   0  0  0  1  0  0  0  0  0  0  0  0
   16.9131  -10.4773   -5.9843 O   0  0  0  1  0  0  0  0  0  0  0  0
   16.8298  -10.0457   -5.1309 H   0  0  0  1  0  0  0  0  0  0  0  0
   18.1700  -11.1459   -3.5762 O   0  0  0  1  0  0  0  0  0  0  0  0
   17.0382  -14.2058   -2.3562 O   0  0  0  1  0  0  0  0  0  0  0  0
   16.4385  -13.4956   -2.5959 H   0  0  0  1  0  0  0  0  0  0  0  0
  1  2  1  0  0  0  0
  1  3  1  0  0  0  0
  1  4  1  0  0  0  0
  1  5  1  0  0  0  0
  3  7  1  0  0  0  0
  3  8  1  0  0  0  0
  4 10  1  0  0  0  0
  5  6  1  0  0  0  0
  5 12  1  0  0  0  0
  5 14  1  0  0  0  0
  7 16  1  0  0  0  0
  7 18  2  0  0  0  0
  8  9  1  0  0  0  0
  8 19  2  0  0  0  0
 10 11  1  0  0  0  0
 10 12  1  0  0  0  0
 10 21  1  0  0  0  0
 12 13  1  0  0  0  0
 12 24  1  0  0  0  0
 14 15  1  0  0  0  0
 16 17  1  0  0  0  0
 16 26  1  0  0  0  0
 19 20  1  0  0  0  0
 19 26  1  0  0  0  0
 21 22  1  0  0  0  0
 21 23  1  0  0  0  0
 21 27  1  0  0  0  0
 24 25  1  0  0  0  0
 26 28  2  0  0  0  0
 27 29  1  0  0  0  0
 29 30  1  0  0  0  0
 29 31  1  0  0  0  0
 29 32  2  0  0  0  0
 30 33  1  0  0  0  0
 33 34  1  0  0  0  0
 33 35  2  0  0  0  0
 33 36  1  0  0  0  0
 36 37  1  0  0  0  0
 37 38  1  0  0  0  0
 37 39  1  0  0  0  0
 37 56  1  0  0  0  0
 39 40  1  0  0  0  0
 39 41  1  0  0  0  0
 39 47  1  0  0  0  0
 41 42  1  0  0  0  0
 43 44  1  0  0  0  0
 43 45  1  0  0  0  0
 43 47  1  0  0  0  0
 43 49  1  0  0  0  0
 45 46  1  0  0  0  0
 47 48  1  0  0  0  0
 47 57  1  0  0  0  0
 49 50  1  0  0  0  0
 49 51  1  0  0  0  0
 49 56  1  0  0  0  0
 51 52  1  0  0  0  0
 51 53  1  0  0  0  0
 51 54  1  0  0  0  0
 54 55  1  0  0  0  0
 57 58  1  0  0  0  0
M  BCL ATM C_TeTeTeTe H_S N_TrTrTrPi2 O_Te2Te2TeTe C_TeTeTeTe H_S C_TrTrTrPi C_TrTrTrPi H_S C_TeTeTeTe H_S C_TeTeTeTe H_S O_Te2Te2TeTe H_S N_TrTrTrPi2 H_S O_Tr2Tr2TrPi C_TrTrTrPi H_S C_TeTeTeTe H_S H_S O_Te2Te2TeTe H_S C_TrTrTrPi O_Tr2TrTrPi2 O_Tr2Tr2TrPi P_TeTeTeTePi O_Tr2TrTrPi2 O_Te2Te2TeTe O_Tr2Tr2TrPi P_TeTeTeTePi O_Te2Te2TeTe O_Tr2Tr2TrPi O_Tr2TrTrPi2 C_TeTeTeTe H_S C_TeTeTeTe H_S O_Te2Te2TeTe H_S C_TeTeTeTe H_S O_Te2Te2TeTe H_S C_TeTeTeTe H_S C_TeTeTeTe H_S C_TeTeTeTe H_S H_S O_Te2Te2TeTe H_S O_Te2Te2TeTe O_Te2Te2TeTe H_S
M  BCL BND NonConjugatedSingleBond NonConjugatedSingleBond NonConjugatedSingleBondInRing NonConjugatedSingleBondInRing ConjugatedSingleBondInRing ConjugatedSingleBondInRing NonConjugatedSingleBondInRing NonConjugatedSingleBond NonConjugatedSingleBondInRing NonConjugatedSingleBond ConjugatedSingleBondInRing ConjugatedDoubleBond NonConjugatedSingleBond ConjugatedDoubleBondInRing NonConjugatedSingleBond NonConjugatedSingleBondInRing NonConjugatedSingleBond NonConjugatedSingleBond NonConjugatedSingleBond NonConjugatedSingleBond NonConjugatedSingleBond ConjugatedSingleBondInRing NonConjugatedSingleBond ConjugatedSingleBondInRing NonConjugatedSingleBond NonConjugatedSingleBond NonConjugatedSingleBond NonConjugatedSingleBond ConjugatedDoubleBond ConjugatedSingleBond ConjugatedSingleBond ConjugatedSingleBond ConjugatedDoubleBond ConjugatedSingleBond ConjugatedSingleBond ConjugatedDoubleBond ConjugatedSingleBond NonConjugatedSingleBond NonConjugatedSingleBond NonConjugatedSingleBondInRing NonConjugatedSingleBondInRing NonConjugatedSingleBond NonConjugatedSingleBond NonConjugatedSingleBondInRing NonConjugatedSingleBond NonConjugatedSingleBond NonConjugatedSingleBond NonConjugatedSingleBondInRing NonConjugatedSingleBondInRing NonConjugatedSingleBond NonConjugatedSingleBond NonConjugatedSingleBond NonConjugatedSingleBond NonConjugatedSingleBond NonConjugatedSingleBondInRing NonConjugatedSingleBond NonConjugatedSingleBond NonConjugatedSingleBond NonConjugatedSingleBond NonConjugatedSingleBond
M  BCL CHI   1   S   5   S  10   S  12   R  29   S  33   R  37   S  39   R  43   R  47   R  49   S
M  BCL DBI - Z - - -
M  END
> <ConfClashScore>
0 

> <ConfOneFourInteractionScore>
-0.98619 

> <ConfScore>
-0.066723 

> <ConfScorePBest>
0.0109785 

> <ConfTolerance>
1.78907 

$$$$
ChEBI.****
  PyMOL2.5          3D                             0

 58 60  0  0  0  0  0  0  0  0999 V2000
   17.0635  -12.6552    3.1111 C   0  0  0  1  0  0  0  0  0  0  0  0
   16.2438  -13.1855    2.6732 H   0  0  0  1  0  0  0  0  0  0  0  0
   18.1411  -13.5930    3.4223 N   0  0  0  1  0  0  0  0  0  0  0  0
   17.5336  -11.6205    2.2179 O   0  0  0  1  0  0  0  0  0  0  0  0
   16.6123  -11.9163    4.3745 C   0  0  0  1  0  0  0  0  0  0  0  0
   15.5653  -11.7091    4.2982 H   0  0  0  1  0  0  0  0  0  0  0  0
   17.8286  -14.8170    3.9845 C   0  0  0  1  0  0  0  0  0  0  0  0
   19.4455  -13.2350    3.1477 C   0  0  0  1  0  0  0  0  0  0  0  0
   19.6266  -12.2960    2.7390 H   0  0  0  1  0  0  0  0  0  0  0  0
   17.4443  -10.3471    2.7972 C   0  0  0  1  0  0  0  0  0  0  0  0
   18.3055   -9.7597    2.5557 H   0  0  0  1  0  0  0  0  0  0  0  0
   17.3789  -10.6215    4.3066 C   0  0  0  1  0  0  0  0  0  0  0  0
   16.8598   -9.8386    4.8188 H   0  0  0  1  0  0  0  0  0  0  0  0
   16.8950  -12.5962    5.5837 O   0  0  0  1  0  0  0  0  0  0  0  0
   17.7509  -13.0259    5.5172 H   0  0  0  1  0  0  0  0  0  0  0  0
   18.9006  -15.6602    4.2122 N   0  0  0  1  0  0  0  0  0  0  0  0
   18.7037  -16.5432    4.5890 H   0  0  0  1  0  0  0  0  0  0  0  0
   16.6829  -15.1321    4.2612 O   0  0  0  1  0  0  0  0  0  0  0  0
   20.4864  -14.0391    3.3829 C   0  0  0  1  0  0  0  0  0  0  0  0
   21.4543  -13.7274    3.1646 H   0  0  0  1  0  0  0  0  0  0  0  0
   16.2130   -9.6404    2.3341 C   0  0  0  1  0  0  0  0  0  0  0  0
   16.1565   -8.6724    2.7865 H   0  0  0  1  0  0  0  0  0  0  0  0
   15.3457  -10.2090    2.5976 H   0  0  0  1  0  0  0  0  0  0  0  0
   18.6872  -10.7681    4.8605 O   0  0  0  1  0  0  0  0  0  0  0  0
   18.9840   -9.9243    5.2090 H   0  0  0  1  0  0  0  0  0  0  0  0
   20.2445  -15.3609    3.9506 C   0  0  0  1  0  0  0  0  0  0  0  0
   16.2972   -9.5080    0.8956 O   0  0  0  1  0  0  0  0  0  0  0  0
   21.1484  -16.1501    4.1814 O   0  0  0  1  0  0  0  0  0  0  0  0
   16.4724   -8.1373    0.1746 P   0  0  0  1  0  0  0  0  0  0  0  0
   17.2415   -8.4443   -1.2021 O   0  0  0  1  0  0  0  0  0  0  0  0
   15.2304   -7.4055   -0.1617 O   0  0  0  0  0  0  0  0  0  0  0  0
   17.3311   -7.3419    1.0839 O   0  0  0  1  0  0  0  0  0  0  0  0
   18.7190   -8.9753   -1.5206 P   0  0  0  1  0  0  0  0  0  0  0  0
   18.9643   -8.6057   -3.0172 O   0  0  0  0  0  0  0  0  0  0  0  0
   19.6337   -8.1645   -0.6490 O   0  0  0  1  0  0  0  0  0  0  0  0
   18.8026  -10.5259   -1.2879 O   0  0  0  1  0  0  0  0  0  0  0  0
   18.1516  -11.4892   -2.1444 C   0  0  0  1  0  0  0  0  0  0  0  0
   17.1235  -11.5807   -1.8623 H   0  0  0  1  0  0  0  0  0  0  0  0
   18.8413  -12.8471   -1.9977 C   0  0  0  1  0  0  0  0  0  0  0  0
   18.7097  -13.2035   -0.9974 H   0  0  0  1  0  0  0  0  0  0  0  0
   20.2353  -12.6995   -2.2717 O   0  0  0  1  0  0  0  0  0  0  0  0
   20.5414  -11.8559   -1.9306 H   0  0  0  1  0  0  0  0  0  0  0  0
   18.2474  -13.3032   -4.3940 C   0  0  0  1  0  0  0  0  0  0  0  0
   19.2561  -13.2240   -4.7419 H   0  0  0  1  0  0  0  0  0  0  0  0
   17.5191  -14.1929   -5.2416 O   0  0  0  1  0  0  0  0  0  0  0  0
   17.6606  -15.0977   -4.9534 H   0  0  0  1  0  0  0  0  0  0  0  0
   18.2448  -13.8470   -2.9669 C   0  0  0  1  0  0  0  0  0  0  0  0
   18.8203  -14.7486   -2.9362 H   0  0  0  1  0  0  0  0  0  0  0  0
   17.5918  -11.9255   -4.4236 C   0  0  0  1  0  0  0  0  0  0  0  0
   16.5605  -12.0207   -4.1548 H   0  0  0  1  0  0  0  0  0  0  0  0
   17.6981  -11.3579   -5.8098 C   0  0  0  1  0  0  0  0  0  0  0  0
   18.7296  -11.2723   -6.0809 H   0  0  0  1  0  0  0  0  0  0  0  0
   17.2409  -10.3908   -5.8341 H   0  0  0  1  0  0  0  0  0  0  0  0
   17.0373  -12.2161   -6.7304 O   0  0  0  1  0  0  0  0  0  0  0  0
   16.4858  -11.6932   -7.3168 H   0  0  0  1  0  0  0  0  0  0  0  0
   18.2342  -11.0471   -3.5084 O   0  0  0  1  0  0  0  0  0  0  0  0
   16.8993  -14.1269   -2.5778 O   0  0  0  1  0  0  0  0  0  0  0  0
   16.5537  -13.3910   -2.0672 H   0  0  0  1  0  0  0  0  0  0  0  0
  1  2  1  0  0  0  0
  1  3  1  0  0  0  0
  1  4  1  0  0  0  0
  1  5  1  0  0  0  0
  3  7  1  0  0  0  0
  3  8  1  0  0  0  0
  4 10  1  0  0  0  0
  5  6  1  0  0  0  0
  5 12  1  0  0  0  0
  5 14  1  0  0  0  0
  7 16  1  0  0  0  0
  7 18  2  0  0  0  0
  8  9  1  0  0  0  0
  8 19  2  0  0  0  0
 10 11  1  0  0  0  0
 10 12  1  0  0  0  0
 10 21  1  0  0  0  0
 12 13  1  0  0  0  0
 12 24  1  0  0  0  0
 14 15  1  0  0  0  0
 16 17  1  0  0  0  0
 16 26  1  0  0  0  0
 19 20  1  0  0  0  0
 19 26  1  0  0  0  0
 21 22  1  0  0  0  0
 21 23  1  0  0  0  0
 21 27  1  0  0  0  0
 24 25  1  0  0  0  0
 26 28  2  0  0  0  0
 27 29  1  0  0  0  0
 29 30  1  0  0  0  0
 29 31  1  0  0  0  0
 29 32  2  0  0  0  0
 30 33  1  0  0  0  0
 33 34  1  0  0  0  0
 33 35  2  0  0  0  0
 33 36  1  0  0  0  0
 36 37  1  0  0  0  0
 37 38  1  0  0  0  0
 37 39  1  0  0  0  0
 37 56  1  0  0  0  0
 39 40  1  0  0  0  0
 39 41  1  0  0  0  0
 39 47  1  0  0  0  0
 41 42  1  0  0  0  0
 43 44  1  0  0  0  0
 43 45  1  0  0  0  0
 43 47  1  0  0  0  0
 43 49  1  0  0  0  0
 45 46  1  0  0  0  0
 47 48  1  0  0  0  0
 47 57  1  0  0  0  0
 49 50  1  0  0  0  0
 49 51  1  0  0  0  0
 49 56  1  0  0  0  0
 51 52  1  0  0  0  0
 51 53  1  0  0  0  0
 51 54  1  0  0  0  0
 54 55  1  0  0  0  0
 57 58  1  0  0  0  0
M  BCL ATM C_TeTeTeTe H_S N_TrTrTrPi2 O_Te2Te2TeTe C_TeTeTeTe H_S C_TrTrTrPi C_TrTrTrPi H_S C_TeTeTeTe H_S C_TeTeTeTe H_S O_Te2Te2TeTe H_S N_TrTrTrPi2 H_S O_Tr2Tr2TrPi C_TrTrTrPi H_S C_TeTeTeTe H_S H_S O_Te2Te2TeTe H_S C_TrTrTrPi O_Tr2TrTrPi2 O_Tr2Tr2TrPi P_TeTeTeTePi O_Tr2TrTrPi2 O_Te2Te2TeTe O_Tr2Tr2TrPi P_TeTeTeTePi O_Te2Te2TeTe O_Tr2Tr2TrPi O_Tr2TrTrPi2 C_TeTeTeTe H_S C_TeTeTeTe H_S O_Te2Te2TeTe H_S C_TeTeTeTe H_S O_Te2Te2TeTe H_S C_TeTeTeTe H_S C_TeTeTeTe H_S C_TeTeTeTe H_S H_S O_Te2Te2TeTe H_S O_Te2Te2TeTe O_Te2Te2TeTe H_S
M  BCL BND NonConjugatedSingleBond NonConjugatedSingleBond NonConjugatedSingleBondInRing NonConjugatedSingleBondInRing ConjugatedSingleBondInRing ConjugatedSingleBondInRing NonConjugatedSingleBondInRing NonConjugatedSingleBond NonConjugatedSingleBondInRing NonConjugatedSingleBond ConjugatedSingleBondInRing ConjugatedDoubleBond NonConjugatedSingleBond ConjugatedDoubleBondInRing NonConjugatedSingleBond NonConjugatedSingleBondInRing NonConjugatedSingleBond NonConjugatedSingleBond NonConjugatedSingleBond NonConjugatedSingleBond NonConjugatedSingleBond ConjugatedSingleBondInRing NonConjugatedSingleBond ConjugatedSingleBondInRing NonConjugatedSingleBond NonConjugatedSingleBond NonConjugatedSingleBond NonConjugatedSingleBond ConjugatedDoubleBond ConjugatedSingleBond ConjugatedSingleBond ConjugatedSingleBond ConjugatedDoubleBond ConjugatedSingleBond ConjugatedSingleBond ConjugatedDoubleBond ConjugatedSingleBond NonConjugatedSingleBond NonConjugatedSingleBond NonConjugatedSingleBondInRing NonConjugatedSingleBondInRing NonConjugatedSingleBond NonConjugatedSingleBond NonConjugatedSingleBondInRing NonConjugatedSingleBond NonConjugatedSingleBond NonConjugatedSingleBond NonConjugatedSingleBondInRing NonConjugatedSingleBondInRing NonConjugatedSingleBond NonConjugatedSingleBond NonConjugatedSingleBond NonConjugatedSingleBond NonConjugatedSingleBond NonConjugatedSingleBondInRing NonConjugatedSingleBond NonConjugatedSingleBond NonConjugatedSingleBond NonConjugatedSingleBond NonConjugatedSingleBond
M  BCL CHI   1   S   5   S  10   S  12   R  29   S  33   R  37   S  39   R  43   R  47   R  49   S
M  BCL DBI - Z - - -
M  END
> <ConfClashScore>
0 

> <ConfOneFourInteractionScore>
-0.968518 

> <ConfScore>
-0.0667011 

> <ConfScorePBest>
0.0108755 

> <ConfTolerance>
1.65323 

$$$$
ChEBI.****
  PyMOL2.5          3D                             0

 58 60  0  0  0  0  0  0  0  0999 V2000
   13.5507  -13.9186    2.5315 C   0  0  0  1  0  0  0  0  0  0  0  0
   12.8347  -13.3989    1.9297 H   0  0  0  1  0  0  0  0  0  0  0  0
   12.9161  -15.0886    3.1462 N   0  0  0  1  0  0  0  0  0  0  0  0
   14.6589  -14.3124    1.7499 O   0  0  0  1  0  0  0  0  0  0  0  0
   14.1134  -12.9983    3.5995 C   0  0  0  1  0  0  0  0  0  0  0  0
   14.1809  -11.9907    3.2460 H   0  0  0  1  0  0  0  0  0  0  0  0
   13.6714  -16.2122    3.3789 C   0  0  0  1  0  0  0  0  0  0  0  0
   11.5882  -15.0303    3.4719 C   0  0  0  1  0  0  0  0  0  0  0  0
   11.0601  -14.1645    3.2419 H   0  0  0  1  0  0  0  0  0  0  0  0
   15.9010  -13.9767    2.4262 C   0  0  0  1  0  0  0  0  0  0  0  0
   16.5579  -14.8210    2.4488 H   0  0  0  1  0  0  0  0  0  0  0  0
   15.4806  -13.5839    3.8418 C   0  0  0  1  0  0  0  0  0  0  0  0
   16.1473  -12.8590    4.2601 H   0  0  0  1  0  0  0  0  0  0  0  0
   13.3177  -13.0354    4.7852 O   0  0  0  1  0  0  0  0  0  0  0  0
   12.4464  -12.6787    4.5976 H   0  0  0  1  0  0  0  0  0  0  0  0
   13.0084  -17.2704    3.9874 N   0  0  0  1  0  0  0  0  0  0  0  0
   13.5192  -18.0879    4.1641 H   0  0  0  1  0  0  0  0  0  0  0  0
   14.8500  -16.2767    3.0706 O   0  0  0  1  0  0  0  0  0  0  0  0
   10.9321  -16.0393    4.0757 C   0  0  0  1  0  0  0  0  0  0  0  0
    9.9269  -15.9494    4.3267 H   0  0  0  1  0  0  0  0  0  0  0  0
   16.5718  -12.8487    1.7514 C   0  0  0  1  0  0  0  0  0  0  0  0
   16.8109  -13.1306    0.7473 H   0  0  0  1  0  0  0  0  0  0  0  0
   17.4711  -12.6073    2.2785 H   0  0  0  1  0  0  0  0  0  0  0  0
   15.4150  -14.7231    4.7010 O   0  0  0  1  0  0  0  0  0  0  0  0
   14.6571  -14.6410    5.2846 H   0  0  0  1  0  0  0  0  0  0  0  0
   11.6641  -17.2493    4.3646 C   0  0  0  1  0  0  0  0  0  0  0  0
   15.7074  -11.6882    1.7275 O   0  0  0  1  0  0  0  0  0  0  0  0
   11.1348  -18.2056    4.9109 O   0  0  0  1  0  0  0  0  0  0  0  0
   16.3226  -10.2015    1.6309 P   0  0  0  1  0  0  0  0  0  0  0  0
   16.7694  -10.3055    0.0797 O   0  0  0  1  0  0  0  0  0  0  0  0
   15.2459   -9.2108    1.8145 O   0  0  0  0  0  0  0  0  0  0  0  0
   17.5320  -10.1162    2.4824 O   0  0  0  1  0  0  0  0  0  0  0  0
   17.6243   -9.1790   -0.7139 P   0  0  0  1  0  0  0  0  0  0  0  0
   16.7473   -8.4901   -1.6920 O   0  0  0  0  0  0  0  0  0  0  0  0
   18.3848   -8.3746    0.2547 O   0  0  0  1  0  0  0  0  0  0  0  0
   18.6038  -10.1927   -1.4324 O   0  0  0  1  0  0  0  0  0  0  0  0
   18.0400  -11.2467   -2.2293 C   0  0  0  1  0  0  0  0  0  0  0  0
   16.9999  -11.3503   -2.0005 H   0  0  0  1  0  0  0  0  0  0  0  0
   18.7616  -12.5597   -1.9188 C   0  0  0  1  0  0  0  0  0  0  0  0
   18.5800  -12.8297   -0.8995 H   0  0  0  1  0  0  0  0  0  0  0  0
   20.1645  -12.3861   -2.1234 O   0  0  0  1  0  0  0  0  0  0  0  0
   20.4627  -12.9779   -2.8180 H   0  0  0  1  0  0  0  0  0  0  0  0
   18.3305  -13.2502   -4.2938 C   0  0  0  1  0  0  0  0  0  0  0  0
   19.3557  -13.1654   -4.5881 H   0  0  0  1  0  0  0  0  0  0  0  0
   17.6835  -14.2389   -5.0978 O   0  0  0  1  0  0  0  0  0  0  0  0
   17.6015  -15.0546   -4.5982 H   0  0  0  1  0  0  0  0  0  0  0  0
   18.2573  -13.6637   -2.8255 C   0  0  0  1  0  0  0  0  0  0  0  0
   18.8578  -14.5371   -2.6788 H   0  0  0  1  0  0  0  0  0  0  0  0
   17.6352  -11.9056   -4.4877 C   0  0  0  1  0  0  0  0  0  0  0  0
   16.5928  -12.0143   -4.2719 H   0  0  0  1  0  0  0  0  0  0  0  0
   17.8086  -11.4609   -5.9118 C   0  0  0  1  0  0  0  0  0  0  0  0
   17.4893  -12.2352   -6.5777 H   0  0  0  1  0  0  0  0  0  0  0  0
   18.8363  -11.2296   -6.0996 H   0  0  0  1  0  0  0  0  0  0  0  0
   17.0083  -10.3009   -6.0972 O   0  0  0  1  0  0  0  0  0  0  0  0
   16.5601  -10.0861   -5.2759 H   0  0  0  1  0  0  0  0  0  0  0  0
   18.1924  -10.9258   -3.6209 O   0  0  0  1  0  0  0  0  0  0  0  0
   16.8999  -13.9568   -2.4915 O   0  0  0  1  0  0  0  0  0  0  0  0
   16.8639  -14.7678   -1.9791 H   0  0  0  1  0  0  0  0  0  0  0  0
  1  2  1  0  0  0  0
  1  3  1  0  0  0  0
  1  4  1  0  0  0  0
  1  5  1  0  0  0  0
  3  7  1  0  0  0  0
  3  8  1  0  0  0  0
  4 10  1  0  0  0  0
  5  6  1  0  0  0  0
  5 12  1  0  0  0  0
  5 14  1  0  0  0  0
  7 16  1  0  0  0  0
  7 18  2  0  0  0  0
  8  9  1  0  0  0  0
  8 19  2  0  0  0  0
 10 11  1  0  0  0  0
 10 12  1  0  0  0  0
 10 21  1  0  0  0  0
 12 13  1  0  0  0  0
 12 24  1  0  0  0  0
 14 15  1  0  0  0  0
 16 17  1  0  0  0  0
 16 26  1  0  0  0  0
 19 20  1  0  0  0  0
 19 26  1  0  0  0  0
 21 22  1  0  0  0  0
 21 23  1  0  0  0  0
 21 27  1  0  0  0  0
 24 25  1  0  0  0  0
 26 28  2  0  0  0  0
 27 29  1  0  0  0  0
 29 30  1  0  0  0  0
 29 31  1  0  0  0  0
 29 32  2  0  0  0  0
 30 33  1  0  0  0  0
 33 34  1  0  0  0  0
 33 35  2  0  0  0  0
 33 36  1  0  0  0  0
 36 37  1  0  0  0  0
 37 38  1  0  0  0  0
 37 39  1  0  0  0  0
 37 56  1  0  0  0  0
 39 40  1  0  0  0  0
 39 41  1  0  0  0  0
 39 47  1  0  0  0  0
 41 42  1  0  0  0  0
 43 44  1  0  0  0  0
 43 45  1  0  0  0  0
 43 47  1  0  0  0  0
 43 49  1  0  0  0  0
 45 46  1  0  0  0  0
 47 48  1  0  0  0  0
 47 57  1  0  0  0  0
 49 50  1  0  0  0  0
 49 51  1  0  0  0  0
 49 56  1  0  0  0  0
 51 52  1  0  0  0  0
 51 53  1  0  0  0  0
 51 54  1  0  0  0  0
 54 55  1  0  0  0  0
 57 58  1  0  0  0  0
M  BCL ATM C_TeTeTeTe H_S N_TrTrTrPi2 O_Te2Te2TeTe C_TeTeTeTe H_S C_TrTrTrPi C_TrTrTrPi H_S C_TeTeTeTe H_S C_TeTeTeTe H_S O_Te2Te2TeTe H_S N_TrTrTrPi2 H_S O_Tr2Tr2TrPi C_TrTrTrPi H_S C_TeTeTeTe H_S H_S O_Te2Te2TeTe H_S C_TrTrTrPi O_Tr2TrTrPi2 O_Tr2Tr2TrPi P_TeTeTeTePi O_Tr2TrTrPi2 O_Te2Te2TeTe O_Tr2Tr2TrPi P_TeTeTeTePi O_Te2Te2TeTe O_Tr2Tr2TrPi O_Tr2TrTrPi2 C_TeTeTeTe H_S C_TeTeTeTe H_S O_Te2Te2TeTe H_S C_TeTeTeTe H_S O_Te2Te2TeTe H_S C_TeTeTeTe H_S C_TeTeTeTe H_S C_TeTeTeTe H_S H_S O_Te2Te2TeTe H_S O_Te2Te2TeTe O_Te2Te2TeTe H_S
M  BCL BND NonConjugatedSingleBond NonConjugatedSingleBond NonConjugatedSingleBondInRing NonConjugatedSingleBondInRing ConjugatedSingleBondInRing ConjugatedSingleBondInRing NonConjugatedSingleBondInRing NonConjugatedSingleBond NonConjugatedSingleBondInRing NonConjugatedSingleBond ConjugatedSingleBondInRing ConjugatedDoubleBond NonConjugatedSingleBond ConjugatedDoubleBondInRing NonConjugatedSingleBond NonConjugatedSingleBondInRing NonConjugatedSingleBond NonConjugatedSingleBond NonConjugatedSingleBond NonConjugatedSingleBond NonConjugatedSingleBond ConjugatedSingleBondInRing NonConjugatedSingleBond ConjugatedSingleBondInRing NonConjugatedSingleBond NonConjugatedSingleBond NonConjugatedSingleBond NonConjugatedSingleBond ConjugatedDoubleBond ConjugatedSingleBond ConjugatedSingleBond ConjugatedSingleBond ConjugatedDoubleBond ConjugatedSingleBond ConjugatedSingleBond ConjugatedDoubleBond ConjugatedSingleBond NonConjugatedSingleBond NonConjugatedSingleBond NonConjugatedSingleBondInRing NonConjugatedSingleBondInRing NonConjugatedSingleBond NonConjugatedSingleBond NonConjugatedSingleBondInRing NonConjugatedSingleBond NonConjugatedSingleBond NonConjugatedSingleBond NonConjugatedSingleBondInRing NonConjugatedSingleBondInRing NonConjugatedSingleBond NonConjugatedSingleBond NonConjugatedSingleBond NonConjugatedSingleBond NonConjugatedSingleBond NonConjugatedSingleBondInRing NonConjugatedSingleBond NonConjugatedSingleBond NonConjugatedSingleBond NonConjugatedSingleBond NonConjugatedSingleBond
M  BCL CHI   1   S   5   S  10   S  12   R  29   S  33   R  37   S  39   R  43   R  47   R  49   S
M  BCL DBI - Z - - -
M  END
> <ConfClashScore>
0 

> <ConfOneFourInteractionScore>
-0.980056 

> <ConfScore>
-0.0664645 

> <ConfScorePBest>
0.0107725 

> <ConfTolerance>
1.74681 

$$$$
ChEBI.****
  PyMOL2.5          3D                             0

 58 60  0  0  0  0  0  0  0  0999 V2000
   18.3375   -2.9320    0.7558 C   0  0  0  1  0  0  0  0  0  0  0  0
   17.3193   -3.1258    0.4903 H   0  0  0  1  0  0  0  0  0  0  0  0
   18.3792   -2.1172    1.9768 N   0  0  0  1  0  0  0  0  0  0  0  0
   19.0111   -4.1329    0.9630 O   0  0  0  1  0  0  0  0  0  0  0  0
   19.0489   -2.1925   -0.3940 C   0  0  0  1  0  0  0  0  0  0  0  0
   18.3586   -1.6069   -0.9645 H   0  0  0  1  0  0  0  0  0  0  0  0
   19.4280   -2.2566    2.8446 C   0  0  0  1  0  0  0  0  0  0  0  0
   17.3608   -1.2231    2.2318 C   0  0  0  1  0  0  0  0  0  0  0  0
   16.5894   -1.1490    1.5383 H   0  0  0  1  0  0  0  0  0  0  0  0
   19.8502   -4.4480   -0.1770 C   0  0  0  1  0  0  0  0  0  0  0  0
   20.8792   -4.4592    0.1162 H   0  0  0  1  0  0  0  0  0  0  0  0
   19.6129   -3.3529   -1.2241 C   0  0  0  1  0  0  0  0  0  0  0  0
   18.9086   -3.6743   -1.9626 H   0  0  0  1  0  0  0  0  0  0  0  0
   20.0936   -1.3522    0.0985 O   0  0  0  1  0  0  0  0  0  0  0  0
   19.7150   -0.5443    0.4526 H   0  0  0  1  0  0  0  0  0  0  0  0
   19.3728   -1.4408    3.9537 N   0  0  0  1  0  0  0  0  0  0  0  0
   20.1160   -1.5144    4.5882 H   0  0  0  1  0  0  0  0  0  0  0  0
   20.3412   -3.0422    2.6513 O   0  0  0  1  0  0  0  0  0  0  0  0
   17.3068   -0.4418    3.3243 C   0  0  0  1  0  0  0  0  0  0  0  0
   16.5094    0.2071    3.4810 H   0  0  0  1  0  0  0  0  0  0  0  0
   19.4765   -5.7815   -0.7358 C   0  0  0  1  0  0  0  0  0  0  0  0
   19.5006   -6.5204    0.0377 H   0  0  0  1  0  0  0  0  0  0  0  0
   20.1593   -6.0553   -1.5128 H   0  0  0  1  0  0  0  0  0  0  0  0
   20.8355   -2.9800   -1.8615 O   0  0  0  1  0  0  0  0  0  0  0  0
   21.5729   -3.1717   -1.2774 H   0  0  0  1  0  0  0  0  0  0  0  0
   18.3836   -0.5315    4.2667 C   0  0  0  1  0  0  0  0  0  0  0  0
   18.1370   -5.6732   -1.2724 O   0  0  0  1  0  0  0  0  0  0  0  0
   18.4225    0.1504    5.2776 O   0  0  0  1  0  0  0  0  0  0  0  0
   16.9519   -6.6455   -0.7494 P   0  0  0  1  0  0  0  0  0  0  0  0
   17.4654   -8.0921   -1.2131 O   0  0  0  1  0  0  0  0  0  0  0  0
   16.9322   -6.6680    0.7242 O   0  0  0  0  0  0  0  0  0  0  0  0
   15.7775   -6.2321   -1.5326 O   0  0  0  1  0  0  0  0  0  0  0  0
   17.9141   -9.4093   -0.4718 P   0  0  0  1  0  0  0  0  0  0  0  0
   18.9126   -9.0583    0.6285 O   0  0  0  0  0  0  0  0  0  0  0  0
   16.6780  -10.0792    0.0249 O   0  0  0  1  0  0  0  0  0  0  0  0
   18.7369  -10.2932   -1.4863 O   0  0  0  1  0  0  0  0  0  0  0  0
   18.1006  -11.3429   -2.2328 C   0  0  0  1  0  0  0  0  0  0  0  0
   17.0824  -11.4383   -1.9181 H   0  0  0  1  0  0  0  0  0  0  0  0
   18.8353  -12.6614   -1.9824 C   0  0  0  1  0  0  0  0  0  0  0  0
   18.7371  -12.9299   -0.9513 H   0  0  0  1  0  0  0  0  0  0  0  0
   20.2176  -12.4987   -2.3032 O   0  0  0  1  0  0  0  0  0  0  0  0
   20.7473  -13.0600   -1.7322 H   0  0  0  1  0  0  0  0  0  0  0  0
   18.2027  -13.3487   -4.3128 C   0  0  0  1  0  0  0  0  0  0  0  0
   19.2005  -13.2720   -4.6914 H   0  0  0  1  0  0  0  0  0  0  0  0
   17.4838  -14.3319   -5.0589 O   0  0  0  1  0  0  0  0  0  0  0  0
   18.1039  -14.9364   -5.4733 H   0  0  0  1  0  0  0  0  0  0  0  0
   18.2487  -13.7615   -2.8432 C   0  0  0  1  0  0  0  0  0  0  0  0
   18.8526  -14.6395   -2.7463 H   0  0  0  1  0  0  0  0  0  0  0  0
   17.5041  -11.9988   -4.4492 C   0  0  0  1  0  0  0  0  0  0  0  0
   16.4825  -12.0993   -4.1472 H   0  0  0  1  0  0  0  0  0  0  0  0
   17.5619  -11.5551   -5.8850 C   0  0  0  1  0  0  0  0  0  0  0  0
   17.0025  -10.6487   -5.9870 H   0  0  0  1  0  0  0  0  0  0  0  0
   17.1244  -12.3157   -6.4973 H   0  0  0  1  0  0  0  0  0  0  0  0
   18.8924  -11.3222   -6.3280 O   0  0  0  1  0  0  0  0  0  0  0  0
   19.4169  -10.9792   -5.6008 H   0  0  0  1  0  0  0  0  0  0  0  0
   18.1391  -11.0233   -3.6325 O   0  0  0  1  0  0  0  0  0  0  0  0
   16.9216  -14.0440   -2.3971 O   0  0  0  1  0  0  0  0  0  0  0  0
   16.5329  -13.2494   -2.0241 H   0  0  0  1  0  0  0  0  0  0  0  0
  1  2  1  0  0  0  0
  1  3  1  0  0  0  0
  1  4  1  0  0  0  0
  1  5  1  0  0  0  0
  3  7  1  0  0  0  0
  3  8  1  0  0  0  0
  4 10  1  0  0  0  0
  5  6  1  0  0  0  0
  5 12  1  0  0  0  0
  5 14  1  0  0  0  0
  7 16  1  0  0  0  0
  7 18  2  0  0  0  0
  8  9  1  0  0  0  0
  8 19  2  0  0  0  0
 10 11  1  0  0  0  0
 10 12  1  0  0  0  0
 10 21  1  0  0  0  0
 12 13  1  0  0  0  0
 12 24  1  0  0  0  0
 14 15  1  0  0  0  0
 16 17  1  0  0  0  0
 16 26  1  0  0  0  0
 19 20  1  0  0  0  0
 19 26  1  0  0  0  0
 21 22  1  0  0  0  0
 21 23  1  0  0  0  0
 21 27  1  0  0  0  0
 24 25  1  0  0  0  0
 26 28  2  0  0  0  0
 27 29  1  0  0  0  0
 29 30  1  0  0  0  0
 29 31  1  0  0  0  0
 29 32  2  0  0  0  0
 30 33  1  0  0  0  0
 33 34  1  0  0  0  0
 33 35  2  0  0  0  0
 33 36  1  0  0  0  0
 36 37  1  0  0  0  0
 37 38  1  0  0  0  0
 37 39  1  0  0  0  0
 37 56  1  0  0  0  0
 39 40  1  0  0  0  0
 39 41  1  0  0  0  0
 39 47  1  0  0  0  0
 41 42  1  0  0  0  0
 43 44  1  0  0  0  0
 43 45  1  0  0  0  0
 43 47  1  0  0  0  0
 43 49  1  0  0  0  0
 45 46  1  0  0  0  0
 47 48  1  0  0  0  0
 47 57  1  0  0  0  0
 49 50  1  0  0  0  0
 49 51  1  0  0  0  0
 49 56  1  0  0  0  0
 51 52  1  0  0  0  0
 51 53  1  0  0  0  0
 51 54  1  0  0  0  0
 54 55  1  0  0  0  0
 57 58  1  0  0  0  0
M  BCL ATM C_TeTeTeTe H_S N_TrTrTrPi2 O_Te2Te2TeTe C_TeTeTeTe H_S C_TrTrTrPi C_TrTrTrPi H_S C_TeTeTeTe H_S C_TeTeTeTe H_S O_Te2Te2TeTe H_S N_TrTrTrPi2 H_S O_Tr2Tr2TrPi C_TrTrTrPi H_S C_TeTeTeTe H_S H_S O_Te2Te2TeTe H_S C_TrTrTrPi O_Tr2TrTrPi2 O_Tr2Tr2TrPi P_TeTeTeTePi O_Tr2TrTrPi2 O_Te2Te2TeTe O_Tr2Tr2TrPi P_TeTeTeTePi O_Te2Te2TeTe O_Tr2Tr2TrPi O_Tr2TrTrPi2 C_TeTeTeTe H_S C_TeTeTeTe H_S O_Te2Te2TeTe H_S C_TeTeTeTe H_S O_Te2Te2TeTe H_S C_TeTeTeTe H_S C_TeTeTeTe H_S C_TeTeTeTe H_S H_S O_Te2Te2TeTe H_S O_Te2Te2TeTe O_Te2Te2TeTe H_S
M  BCL BND NonConjugatedSingleBond NonConjugatedSingleBond NonConjugatedSingleBondInRing NonConjugatedSingleBondInRing ConjugatedSingleBondInRing ConjugatedSingleBondInRing NonConjugatedSingleBondInRing NonConjugatedSingleBond NonConjugatedSingleBondInRing NonConjugatedSingleBond ConjugatedSingleBondInRing ConjugatedDoubleBond NonConjugatedSingleBond ConjugatedDoubleBondInRing NonConjugatedSingleBond NonConjugatedSingleBondInRing NonConjugatedSingleBond NonConjugatedSingleBond NonConjugatedSingleBond NonConjugatedSingleBond NonConjugatedSingleBond ConjugatedSingleBondInRing NonConjugatedSingleBond ConjugatedSingleBondInRing NonConjugatedSingleBond NonConjugatedSingleBond NonConjugatedSingleBond NonConjugatedSingleBond ConjugatedDoubleBond ConjugatedSingleBond ConjugatedSingleBond ConjugatedSingleBond ConjugatedDoubleBond ConjugatedSingleBond ConjugatedSingleBond ConjugatedDoubleBond ConjugatedSingleBond NonConjugatedSingleBond NonConjugatedSingleBond NonConjugatedSingleBondInRing NonConjugatedSingleBondInRing NonConjugatedSingleBond NonConjugatedSingleBond NonConjugatedSingleBondInRing NonConjugatedSingleBond NonConjugatedSingleBond NonConjugatedSingleBond NonConjugatedSingleBondInRing NonConjugatedSingleBondInRing NonConjugatedSingleBond NonConjugatedSingleBond NonConjugatedSingleBond NonConjugatedSingleBond NonConjugatedSingleBond NonConjugatedSingleBondInRing NonConjugatedSingleBond NonConjugatedSingleBond NonConjugatedSingleBond NonConjugatedSingleBond NonConjugatedSingleBond
M  BCL CHI   1   S   5   S  10   S  12   R  29   S  33   R  37   S  39   R  43   R  47   R  49   S
M  BCL DBI - Z - - -
M  END
> <ConfClashScore>
0 

> <ConfOneFourInteractionScore>
-0.98757 

> <ConfScore>
-0.0664369 

> <ConfScorePBest>
0.0106695 

> <ConfTolerance>
1.7713 

$$$$
ChEBI.****
  PyMOL2.5          3D                             0

 58 60  0  0  0  0  0  0  0  0999 V2000
   13.9729   -2.9060   -2.5328 C   0  0  0  1  0  0  0  0  0  0  0  0
   13.9087   -2.7188   -1.4813 H   0  0  0  1  0  0  0  0  0  0  0  0
   14.2298   -1.6474   -3.2393 N   0  0  0  1  0  0  0  0  0  0  0  0
   15.0108   -3.8535   -2.8083 O   0  0  0  1  0  0  0  0  0  0  0  0
   12.6797   -3.5473   -3.0397 C   0  0  0  1  0  0  0  0  0  0  0  0
   12.2129   -4.1418   -2.2824 H   0  0  0  1  0  0  0  0  0  0  0  0
   13.4434   -0.5472   -2.9741 C   0  0  0  1  0  0  0  0  0  0  0  0
   15.2516   -1.5819   -4.1564 C   0  0  0  1  0  0  0  0  0  0  0  0
   15.8214   -2.4350   -4.3272 H   0  0  0  1  0  0  0  0  0  0  0  0
   14.5438   -4.8380   -3.7488 C   0  0  0  1  0  0  0  0  0  0  0  0
   15.2038   -4.8874   -4.5896 H   0  0  0  1  0  0  0  0  0  0  0  0
   13.2088   -4.4072   -4.1780 C   0  0  0  1  0  0  0  0  0  0  0  0
   12.5739   -5.2542   -4.3341 H   0  0  0  1  0  0  0  0  0  0  0  0
   11.7565   -2.5643   -3.5105 O   0  0  0  1  0  0  0  0  0  0  0  0
   12.1843   -2.0125   -4.1694 H   0  0  0  1  0  0  0  0  0  0  0  0
   13.7517    0.5907   -3.6792 N   0  0  0  1  0  0  0  0  0  0  0  0
   13.2029    1.3834   -3.5037 H   0  0  0  1  0  0  0  0  0  0  0  0
   12.5314   -0.5817   -2.1646 O   0  0  0  1  0  0  0  0  0  0  0  0
   15.5500   -0.4530   -4.8495 C   0  0  0  1  0  0  0  0  0  0  0  0
   16.3308   -0.4395   -5.5364 H   0  0  0  1  0  0  0  0  0  0  0  0
   14.4673   -6.1788   -3.0958 C   0  0  0  1  0  0  0  0  0  0  0  0
   13.7118   -6.7715   -3.5678 H   0  0  0  1  0  0  0  0  0  0  0  0
   14.2355   -6.0656   -2.0573 H   0  0  0  1  0  0  0  0  0  0  0  0
   13.2924   -3.6454   -5.3833 O   0  0  0  1  0  0  0  0  0  0  0  0
   12.4434   -3.2346   -5.5623 H   0  0  0  1  0  0  0  0  0  0  0  0
   14.7585    0.7237   -4.6092 C   0  0  0  1  0  0  0  0  0  0  0  0
   15.7582   -6.8151   -3.2461 O   0  0  0  1  0  0  0  0  0  0  0  0
   14.9666    1.7761   -5.1940 O   0  0  0  1  0  0  0  0  0  0  0  0
   16.1186   -8.0937   -2.4307 P   0  0  0  1  0  0  0  0  0  0  0  0
   17.6204   -8.4867   -2.8445 O   0  0  0  1  0  0  0  0  0  0  0  0
   16.0803   -7.9685   -0.9592 O   0  0  0  0  0  0  0  0  0  0  0  0
   15.1573   -9.1283   -2.9067 O   0  0  0  1  0  0  0  0  0  0  0  0
   18.8888   -8.9296   -1.9921 P   0  0  0  1  0  0  0  0  0  0  0  0
   19.9478   -9.2437   -2.9689 O   0  0  0  0  0  0  0  0  0  0  0  0
   19.1578   -7.9568   -0.9185 O   0  0  0  1  0  0  0  0  0  0  0  0
   18.4560  -10.3174   -1.3986 O   0  0  0  1  0  0  0  0  0  0  0  0
   17.9847  -11.3908   -2.1987 C   0  0  0  1  0  0  0  0  0  0  0  0
   16.9563  -11.5803   -1.9723 H   0  0  0  1  0  0  0  0  0  0  0  0
   18.8095  -12.6451   -1.9028 C   0  0  0  1  0  0  0  0  0  0  0  0
   18.6501  -12.9407   -0.8869 H   0  0  0  1  0  0  0  0  0  0  0  0
   20.1940  -12.3568   -2.1038 O   0  0  0  1  0  0  0  0  0  0  0  0
   20.5379  -12.9115   -2.8078 H   0  0  0  1  0  0  0  0  0  0  0  0
   18.4357  -13.3399   -4.2862 C   0  0  0  1  0  0  0  0  0  0  0  0
   19.4508  -13.1695   -4.5784 H   0  0  0  1  0  0  0  0  0  0  0  0
   17.8702  -14.3685   -5.1028 O   0  0  0  1  0  0  0  0  0  0  0  0
   16.9172  -14.2592   -5.1417 H   0  0  0  1  0  0  0  0  0  0  0  0
   18.3958  -13.7753   -2.8230 C   0  0  0  1  0  0  0  0  0  0  0  0
   19.0645  -14.5992   -2.6859 H   0  0  0  1  0  0  0  0  0  0  0  0
   17.6346  -12.0534   -4.4651 C   0  0  0  1  0  0  0  0  0  0  0  0
   16.6043  -12.2481   -4.2517 H   0  0  0  1  0  0  0  0  0  0  0  0
   17.7719  -11.5796   -5.8834 C   0  0  0  1  0  0  0  0  0  0  0  0
   17.4114  -10.5750   -5.9592 H   0  0  0  1  0  0  0  0  0  0  0  0
   17.1994  -12.2140   -6.5273 H   0  0  0  1  0  0  0  0  0  0  0  0
   19.1386  -11.6217   -6.2720 O   0  0  0  1  0  0  0  0  0  0  0  0
   19.4805  -12.5097   -6.1452 H   0  0  0  1  0  0  0  0  0  0  0  0
   18.1110  -11.0423   -3.5863 O   0  0  0  1  0  0  0  0  0  0  0  0
   17.0663  -14.1805   -2.4939 O   0  0  0  1  0  0  0  0  0  0  0  0
   16.7806  -13.7264   -1.6978 H   0  0  0  1  0  0  0  0  0  0  0  0
  1  2  1  0  0  0  0
  1  3  1  0  0  0  0
  1  4  1  0  0  0  0
  1  5  1  0  0  0  0
  3  7  1  0  0  0  0
  3  8  1  0  0  0  0
  4 10  1  0  0  0  0
  5  6  1  0  0  0  0
  5 12  1  0  0  0  0
  5 14  1  0  0  0  0
  7 16  1  0  0  0  0
  7 18  2  0  0  0  0
  8  9  1  0  0  0  0
  8 19  2  0  0  0  0
 10 11  1  0  0  0  0
 10 12  1  0  0  0  0
 10 21  1  0  0  0  0
 12 13  1  0  0  0  0
 12 24  1  0  0  0  0
 14 15  1  0  0  0  0
 16 17  1  0  0  0  0
 16 26  1  0  0  0  0
 19 20  1  0  0  0  0
 19 26  1  0  0  0  0
 21 22  1  0  0  0  0
 21 23  1  0  0  0  0
 21 27  1  0  0  0  0
 24 25  1  0  0  0  0
 26 28  2  0  0  0  0
 27 29  1  0  0  0  0
 29 30  1  0  0  0  0
 29 31  1  0  0  0  0
 29 32  2  0  0  0  0
 30 33  1  0  0  0  0
 33 34  1  0  0  0  0
 33 35  2  0  0  0  0
 33 36  1  0  0  0  0
 36 37  1  0  0  0  0
 37 38  1  0  0  0  0
 37 39  1  0  0  0  0
 37 56  1  0  0  0  0
 39 40  1  0  0  0  0
 39 41  1  0  0  0  0
 39 47  1  0  0  0  0
 41 42  1  0  0  0  0
 43 44  1  0  0  0  0
 43 45  1  0  0  0  0
 43 47  1  0  0  0  0
 43 49  1  0  0  0  0
 45 46  1  0  0  0  0
 47 48  1  0  0  0  0
 47 57  1  0  0  0  0
 49 50  1  0  0  0  0
 49 51  1  0  0  0  0
 49 56  1  0  0  0  0
 51 52  1  0  0  0  0
 51 53  1  0  0  0  0
 51 54  1  0  0  0  0
 54 55  1  0  0  0  0
 57 58  1  0  0  0  0
M  BCL ATM C_TeTeTeTe H_S N_TrTrTrPi2 O_Te2Te2TeTe C_TeTeTeTe H_S C_TrTrTrPi C_TrTrTrPi H_S C_TeTeTeTe H_S C_TeTeTeTe H_S O_Te2Te2TeTe H_S N_TrTrTrPi2 H_S O_Tr2Tr2TrPi C_TrTrTrPi H_S C_TeTeTeTe H_S H_S O_Te2Te2TeTe H_S C_TrTrTrPi O_Tr2TrTrPi2 O_Tr2Tr2TrPi P_TeTeTeTePi O_Tr2TrTrPi2 O_Te2Te2TeTe O_Tr2Tr2TrPi P_TeTeTeTePi O_Te2Te2TeTe O_Tr2Tr2TrPi O_Tr2TrTrPi2 C_TeTeTeTe H_S C_TeTeTeTe H_S O_Te2Te2TeTe H_S C_TeTeTeTe H_S O_Te2Te2TeTe H_S C_TeTeTeTe H_S C_TeTeTeTe H_S C_TeTeTeTe H_S H_S O_Te2Te2TeTe H_S O_Te2Te2TeTe O_Te2Te2TeTe H_S
M  BCL BND NonConjugatedSingleBond NonConjugatedSingleBond NonConjugatedSingleBondInRing NonConjugatedSingleBondInRing ConjugatedSingleBondInRing ConjugatedSingleBondInRing NonConjugatedSingleBondInRing NonConjugatedSingleBond NonConjugatedSingleBondInRing NonConjugatedSingleBond ConjugatedSingleBondInRing ConjugatedDoubleBond NonConjugatedSingleBond ConjugatedDoubleBondInRing NonConjugatedSingleBond NonConjugatedSingleBondInRing NonConjugatedSingleBond NonConjugatedSingleBond NonConjugatedSingleBond NonConjugatedSingleBond NonConjugatedSingleBond ConjugatedSingleBondInRing NonConjugatedSingleBond ConjugatedSingleBondInRing NonConjugatedSingleBond NonConjugatedSingleBond NonConjugatedSingleBond NonConjugatedSingleBond ConjugatedDoubleBond ConjugatedSingleBond ConjugatedSingleBond ConjugatedSingleBond ConjugatedDoubleBond ConjugatedSingleBond ConjugatedSingleBond ConjugatedDoubleBond ConjugatedSingleBond NonConjugatedSingleBond NonConjugatedSingleBond NonConjugatedSingleBondInRing NonConjugatedSingleBondInRing NonConjugatedSingleBond NonConjugatedSingleBond NonConjugatedSingleBondInRing NonConjugatedSingleBond NonConjugatedSingleBond NonConjugatedSingleBond NonConjugatedSingleBondInRing NonConjugatedSingleBondInRing NonConjugatedSingleBond NonConjugatedSingleBond NonConjugatedSingleBond NonConjugatedSingleBond NonConjugatedSingleBond NonConjugatedSingleBondInRing NonConjugatedSingleBond NonConjugatedSingleBond NonConjugatedSingleBond NonConjugatedSingleBond NonConjugatedSingleBond
M  BCL CHI   1   S   5   S  10   S  12   R  29   S  33   R  37   S  39   R  43   R  47   R  49   S
M  BCL DBI - Z - - -
M  END
> <ConfClashScore>
0 

> <ConfOneFourInteractionScore>
-0.95271 

> <ConfScore>
-0.0641627 

> <ConfScorePBest>
0.0105665 

> <ConfTolerance>
1.53585 

$$$$
ChEBI.****
  PyMOL2.5          3D                             0

 58 60  0  0  0  0  0  0  0  0999 V2000
   18.9358   -4.2517    2.3461 C   0  0  0  1  0  0  0  0  0  0  0  0
   19.7766   -3.9345    1.7653 H   0  0  0  1  0  0  0  0  0  0  0  0
   19.0685   -3.7449    3.7179 N   0  0  0  1  0  0  0  0  0  0  0  0
   17.6953   -3.7880    1.7467 O   0  0  0  1  0  0  0  0  0  0  0  0
   18.8243   -5.7757    2.3438 C   0  0  0  1  0  0  0  0  0  0  0  0
   19.1830   -6.1921    1.4257 H   0  0  0  1  0  0  0  0  0  0  0  0
   20.3306   -3.5916    4.2612 C   0  0  0  1  0  0  0  0  0  0  0  0
   17.9301   -3.4332    4.4336 C   0  0  0  1  0  0  0  0  0  0  0  0
   17.0047   -3.5819    3.9830 H   0  0  0  1  0  0  0  0  0  0  0  0
   16.7765   -4.8538    1.6298 C   0  0  0  1  0  0  0  0  0  0  0  0
   15.8118   -4.5562    1.9846 H   0  0  0  1  0  0  0  0  0  0  0  0
   17.3373   -5.9702    2.4920 C   0  0  0  1  0  0  0  0  0  0  0  0
   17.0341   -6.9297    2.1283 H   0  0  0  1  0  0  0  0  0  0  0  0
   19.5370   -6.3521    3.4393 O   0  0  0  1  0  0  0  0  0  0  0  0
   20.1553   -7.0083    3.1096 H   0  0  0  1  0  0  0  0  0  0  0  0
   20.3698   -3.0733    5.5426 N   0  0  0  1  0  0  0  0  0  0  0  0
   21.2537   -2.9332    5.9422 H   0  0  0  1  0  0  0  0  0  0  0  0
   21.3427   -3.8937    3.6506 O   0  0  0  1  0  0  0  0  0  0  0  0
   17.9623   -2.9492    5.6786 C   0  0  0  1  0  0  0  0  0  0  0  0
   17.0794   -2.7315    6.1834 H   0  0  0  1  0  0  0  0  0  0  0  0
   16.6725   -5.2849    0.2454 C   0  0  0  1  0  0  0  0  0  0  0  0
   16.4039   -4.4414   -0.3557 H   0  0  0  1  0  0  0  0  0  0  0  0
   15.9082   -6.0306    0.1764 H   0  0  0  1  0  0  0  0  0  0  0  0
   16.9296   -5.8256    3.8557 O   0  0  0  1  0  0  0  0  0  0  0  0
   17.3228   -6.5245    4.3835 H   0  0  0  1  0  0  0  0  0  0  0  0
   19.2545   -2.7309    6.3191 C   0  0  0  1  0  0  0  0  0  0  0  0
   17.9076   -5.8408   -0.2643 O   0  0  0  1  0  0  0  0  0  0  0  0
   19.3570   -2.2827    7.4492 O   0  0  0  1  0  0  0  0  0  0  0  0
   18.0215   -6.5447   -1.6748 P   0  0  0  1  0  0  0  0  0  0  0  0
   17.3938   -7.9766   -1.3372 O   0  0  0  1  0  0  0  0  0  0  0  0
   17.1962   -5.8481   -2.7228 O   0  0  0  0  0  0  0  0  0  0  0  0
   19.4810   -6.6863   -1.9798 O   0  0  0  1  0  0  0  0  0  0  0  0
   17.9414   -9.2183   -0.5245 P   0  0  0  1  0  0  0  0  0  0  0  0
   18.9532   -8.6305    0.4084 O   0  0  0  0  0  0  0  0  0  0  0  0
   16.8664  -10.0860   -0.0108 O   0  0  0  1  0  0  0  0  0  0  0  0
   18.6880  -10.0926   -1.5938 O   0  0  0  1  0  0  0  0  0  0  0  0
   18.0917  -11.2003   -2.2402 C   0  0  0  1  0  0  0  0  0  0  0  0
   17.0635  -11.2709   -1.9523 H   0  0  0  1  0  0  0  0  0  0  0  0
   18.8226  -12.4809   -1.8315 C   0  0  0  1  0  0  0  0  0  0  0  0
   18.6898  -12.6435   -0.7823 H   0  0  0  1  0  0  0  0  0  0  0  0
   20.2145  -12.3413   -2.1199 O   0  0  0  1  0  0  0  0  0  0  0  0
   20.4680  -12.9782   -2.7919 H   0  0  0  1  0  0  0  0  0  0  0  0
   18.2740  -13.4070   -4.0996 C   0  0  0  1  0  0  0  0  0  0  0  0
   19.2840  -13.3617   -4.4499 H   0  0  0  1  0  0  0  0  0  0  0  0
   17.5855  -14.4666   -4.7655 O   0  0  0  1  0  0  0  0  0  0  0  0
   17.9697  -14.6020   -5.6347 H   0  0  0  1  0  0  0  0  0  0  0  0
   18.2707  -13.6674   -2.5948 C   0  0  0  1  0  0  0  0  0  0  0  0
   18.8744  -14.5264   -2.3882 H   0  0  0  1  0  0  0  0  0  0  0  0
   17.5751  -12.0834   -4.3970 C   0  0  0  1  0  0  0  0  0  0  0  0
   16.5440  -12.1603   -4.1214 H   0  0  0  1  0  0  0  0  0  0  0  0
   17.6807  -11.7884   -5.8656 C   0  0  0  1  0  0  0  0  0  0  0  0
   17.4542  -12.6731   -6.4232 H   0  0  0  1  0  0  0  0  0  0  0  0
   18.6758  -11.4677   -6.0932 H   0  0  0  1  0  0  0  0  0  0  0  0
   16.7626  -10.7624   -6.2146 O   0  0  0  1  0  0  0  0  0  0  0  0
   16.5944  -10.2087   -5.4486 H   0  0  0  1  0  0  0  0  0  0  0  0
   18.1774  -11.0249   -3.6631 O   0  0  0  1  0  0  0  0  0  0  0  0
   16.9300  -13.9130   -2.1678 O   0  0  0  1  0  0  0  0  0  0  0  0
   16.4878  -14.4755   -2.8077 H   0  0  0  1  0  0  0  0  0  0  0  0
  1  2  1  0  0  0  0
  1  3  1  0  0  0  0
  1  4  1  0  0  0  0
  1  5  1  0  0  0  0
  3  7  1  0  0  0  0
  3  8  1  0  0  0  0
  4 10  1  0  0  0  0
  5  6  1  0  0  0  0
  5 12  1  0  0  0  0
  5 14  1  0  0  0  0
  7 16  1  0  0  0  0
  7 18  2  0  0  0  0
  8  9  1  0  0  0  0
  8 19  2  0  0  0  0
 10 11  1  0  0  0  0
 10 12  1  0  0  0  0
 10 21  1  0  0  0  0
 12 13  1  0  0  0  0
 12 24  1  0  0  0  0
 14 15  1  0  0  0  0
 16 17  1  0  0  0  0
 16 26  1  0  0  0  0
 19 20  1  0  0  0  0
 19 26  1  0  0  0  0
 21 22  1  0  0  0  0
 21 23  1  0  0  0  0
 21 27  1  0  0  0  0
 24 25  1  0  0  0  0
 26 28  2  0  0  0  0
 27 29  1  0  0  0  0
 29 30  1  0  0  0  0
 29 31  1  0  0  0  0
 29 32  2  0  0  0  0
 30 33  1  0  0  0  0
 33 34  1  0  0  0  0
 33 35  2  0  0  0  0
 33 36  1  0  0  0  0
 36 37  1  0  0  0  0
 37 38  1  0  0  0  0
 37 39  1  0  0  0  0
 37 56  1  0  0  0  0
 39 40  1  0  0  0  0
 39 41  1  0  0  0  0
 39 47  1  0  0  0  0
 41 42  1  0  0  0  0
 43 44  1  0  0  0  0
 43 45  1  0  0  0  0
 43 47  1  0  0  0  0
 43 49  1  0  0  0  0
 45 46  1  0  0  0  0
 47 48  1  0  0  0  0
 47 57  1  0  0  0  0
 49 50  1  0  0  0  0
 49 51  1  0  0  0  0
 49 56  1  0  0  0  0
 51 52  1  0  0  0  0
 51 53  1  0  0  0  0
 51 54  1  0  0  0  0
 54 55  1  0  0  0  0
 57 58  1  0  0  0  0
M  BCL ATM C_TeTeTeTe H_S N_TrTrTrPi2 O_Te2Te2TeTe C_TeTeTeTe H_S C_TrTrTrPi C_TrTrTrPi H_S C_TeTeTeTe H_S C_TeTeTeTe H_S O_Te2Te2TeTe H_S N_TrTrTrPi2 H_S O_Tr2Tr2TrPi C_TrTrTrPi H_S C_TeTeTeTe H_S H_S O_Te2Te2TeTe H_S C_TrTrTrPi O_Tr2TrTrPi2 O_Tr2Tr2TrPi P_TeTeTeTePi O_Tr2TrTrPi2 O_Te2Te2TeTe O_Tr2Tr2TrPi P_TeTeTeTePi O_Te2Te2TeTe O_Tr2Tr2TrPi O_Tr2TrTrPi2 C_TeTeTeTe H_S C_TeTeTeTe H_S O_Te2Te2TeTe H_S C_TeTeTeTe H_S O_Te2Te2TeTe H_S C_TeTeTeTe H_S C_TeTeTeTe H_S C_TeTeTeTe H_S H_S O_Te2Te2TeTe H_S O_Te2Te2TeTe O_Te2Te2TeTe H_S
M  BCL BND NonConjugatedSingleBond NonConjugatedSingleBond NonConjugatedSingleBondInRing NonConjugatedSingleBondInRing ConjugatedSingleBondInRing ConjugatedSingleBondInRing NonConjugatedSingleBondInRing NonConjugatedSingleBond NonConjugatedSingleBondInRing NonConjugatedSingleBond ConjugatedSingleBondInRing ConjugatedDoubleBond NonConjugatedSingleBond ConjugatedDoubleBondInRing NonConjugatedSingleBond NonConjugatedSingleBondInRing NonConjugatedSingleBond NonConjugatedSingleBond NonConjugatedSingleBond NonConjugatedSingleBond NonConjugatedSingleBond ConjugatedSingleBondInRing NonConjugatedSingleBond ConjugatedSingleBondInRing NonConjugatedSingleBond NonConjugatedSingleBond NonConjugatedSingleBond NonConjugatedSingleBond ConjugatedDoubleBond ConjugatedSingleBond ConjugatedSingleBond ConjugatedSingleBond ConjugatedDoubleBond ConjugatedSingleBond ConjugatedSingleBond ConjugatedDoubleBond ConjugatedSingleBond NonConjugatedSingleBond NonConjugatedSingleBond NonConjugatedSingleBondInRing NonConjugatedSingleBondInRing NonConjugatedSingleBond NonConjugatedSingleBond NonConjugatedSingleBondInRing NonConjugatedSingleBond NonConjugatedSingleBond NonConjugatedSingleBond NonConjugatedSingleBondInRing NonConjugatedSingleBondInRing NonConjugatedSingleBond NonConjugatedSingleBond NonConjugatedSingleBond NonConjugatedSingleBond NonConjugatedSingleBond NonConjugatedSingleBondInRing NonConjugatedSingleBond NonConjugatedSingleBond NonConjugatedSingleBond NonConjugatedSingleBond NonConjugatedSingleBond
M  BCL CHI   1   S   5   S  10   S  12   R  29   S  33   R  37   S  39   R  43   R  47   R  49   S
M  BCL DBI - Z - - -
M  END
> <ConfClashScore>
0 

> <ConfOneFourInteractionScore>
-0.973934 

> <ConfScore>
-0.062829 

> <ConfScorePBest>
0.0104635 

> <ConfTolerance>
1.58451 

$$$$
ChEBI.****
  PyMOL2.5          3D                             0

 58 60  0  0  0  0  0  0  0  0999 V2000
   15.7940  -15.7539    3.3961 C   0  0  0  1  0  0  0  0  0  0  0  0
   16.5031  -15.8234    4.1944 H   0  0  0  1  0  0  0  0  0  0  0  0
   14.5669  -16.4646    3.7684 N   0  0  0  1  0  0  0  0  0  0  0  0
   15.5114  -14.4016    3.1038 O   0  0  0  1  0  0  0  0  0  0  0  0
   16.3752  -16.3327    2.1189 C   0  0  0  1  0  0  0  0  0  0  0  0
   17.4294  -16.1589    2.0597 H   0  0  0  1  0  0  0  0  0  0  0  0
   13.3574  -16.0163    3.2892 C   0  0  0  1  0  0  0  0  0  0  0  0
   14.6485  -17.5554    4.5817 C   0  0  0  1  0  0  0  0  0  0  0  0
   15.5814  -17.8426    4.9405 H   0  0  0  1  0  0  0  0  0  0  0  0
   15.5663  -14.1709    1.6697 C   0  0  0  1  0  0  0  0  0  0  0  0
   14.6899  -13.6549    1.3372 H   0  0  0  1  0  0  0  0  0  0  0  0
   15.6356  -15.5670    1.0523 C   0  0  0  1  0  0  0  0  0  0  0  0
   16.1778  -15.5596    0.1299 H   0  0  0  1  0  0  0  0  0  0  0  0
   16.1169  -17.7342    2.0222 O   0  0  0  1  0  0  0  0  0  0  0  0
   16.9132  -18.1879    1.7366 H   0  0  0  1  0  0  0  0  0  0  0  0
   12.2481  -16.7572    3.6601 N   0  0  0  1  0  0  0  0  0  0  0  0
   11.3733  -16.4549    3.3379 H   0  0  0  1  0  0  0  0  0  0  0  0
   13.2680  -15.0268    2.5812 O   0  0  0  1  0  0  0  0  0  0  0  0
   13.5809  -18.2671    4.9344 C   0  0  0  1  0  0  0  0  0  0  0  0
   13.6923  -19.0915    5.5586 H   0  0  0  1  0  0  0  0  0  0  0  0
   16.7873  -13.3709    1.3084 C   0  0  0  1  0  0  0  0  0  0  0  0
   16.8767  -13.2857    0.2455 H   0  0  0  1  0  0  0  0  0  0  0  0
   17.6671  -13.8331    1.7049 H   0  0  0  1  0  0  0  0  0  0  0  0
   14.3308  -16.1057    0.8340 O   0  0  0  1  0  0  0  0  0  0  0  0
   14.4062  -16.9845    0.4550 H   0  0  0  1  0  0  0  0  0  0  0  0
   12.2814  -17.9050    4.4602 C   0  0  0  1  0  0  0  0  0  0  0  0
   16.5896  -12.0673    1.9044 O   0  0  0  1  0  0  0  0  0  0  0  0
   11.2798  -18.5465    4.7318 O   0  0  0  1  0  0  0  0  0  0  0  0
   17.8225  -11.0713    2.1268 P   0  0  0  1  0  0  0  0  0  0  0  0
   18.0838  -10.6503    0.6063 O   0  0  0  1  0  0  0  0  0  0  0  0
   17.2755   -9.9327    2.9293 O   0  0  0  0  0  0  0  0  0  0  0  0
   19.0152  -11.7607    2.7032 O   0  0  0  1  0  0  0  0  0  0  0  0
   19.2898  -10.1923   -0.1897 P   0  0  0  1  0  0  0  0  0  0  0  0
   19.8387   -8.8480    0.2176 O   0  0  0  0  0  0  0  0  0  0  0  0
   20.2417  -11.3081   -0.2272 O   0  0  0  1  0  0  0  0  0  0  0  0
   18.6877  -10.1394   -1.6426 O   0  0  0  1  0  0  0  0  0  0  0  0
   18.0768  -11.2342   -2.3220 C   0  0  0  1  0  0  0  0  0  0  0  0
   17.0524  -11.3131   -2.0232 H   0  0  0  1  0  0  0  0  0  0  0  0
   18.8114  -12.5278   -1.9642 C   0  0  0  1  0  0  0  0  0  0  0  0
   18.6920  -12.7239   -0.9191 H   0  0  0  1  0  0  0  0  0  0  0  0
   20.1996  -12.3800   -2.2660 O   0  0  0  1  0  0  0  0  0  0  0  0
   20.7122  -12.9792   -1.7184 H   0  0  0  1  0  0  0  0  0  0  0  0
   18.2323  -13.3801   -4.2536 C   0  0  0  1  0  0  0  0  0  0  0  0
   19.2378  -13.3243   -4.6153 H   0  0  0  1  0  0  0  0  0  0  0  0
   17.5340  -14.4171   -4.9441 O   0  0  0  1  0  0  0  0  0  0  0  0
   17.7194  -14.3574   -5.8842 H   0  0  0  1  0  0  0  0  0  0  0  0
   18.2483  -13.6887   -2.7580 C   0  0  0  1  0  0  0  0  0  0  0  0
   18.8535  -14.5544   -2.5870 H   0  0  0  1  0  0  0  0  0  0  0  0
   17.5312  -12.0470   -4.4991 C   0  0  0  1  0  0  0  0  0  0  0  0
   16.5038  -12.1320   -4.2128 H   0  0  0  1  0  0  0  0  0  0  0  0
   17.6182  -11.7050   -5.9587 C   0  0  0  1  0  0  0  0  0  0  0  0
   17.1232  -12.4613   -6.5313 H   0  0  0  1  0  0  0  0  0  0  0  0
   18.6461  -11.6514   -6.2508 H   0  0  0  1  0  0  0  0  0  0  0  0
   16.9940  -10.4498   -6.1942 O   0  0  0  1  0  0  0  0  0  0  0  0
   17.4399   -9.7695   -5.6843 H   0  0  0  1  0  0  0  0  0  0  0  0
   18.1442  -11.0131   -3.7394 O   0  0  0  1  0  0  0  0  0  0  0  0
   16.9129  -13.9469   -2.3217 O   0  0  0  1  0  0  0  0  0  0  0  0
   16.9238  -14.6207   -1.6381 H   0  0  0  1  0  0  0  0  0  0  0  0
  1  2  1  0  0  0  0
  1  3  1  0  0  0  0
  1  4  1  0  0  0  0
  1  5  1  0  0  0  0
  3  7  1  0  0  0  0
  3  8  1  0  0  0  0
  4 10  1  0  0  0  0
  5  6  1  0  0  0  0
  5 12  1  0  0  0  0
  5 14  1  0  0  0  0
  7 16  1  0  0  0  0
  7 18  2  0  0  0  0
  8  9  1  0  0  0  0
  8 19  2  0  0  0  0
 10 11  1  0  0  0  0
 10 12  1  0  0  0  0
 10 21  1  0  0  0  0
 12 13  1  0  0  0  0
 12 24  1  0  0  0  0
 14 15  1  0  0  0  0
 16 17  1  0  0  0  0
 16 26  1  0  0  0  0
 19 20  1  0  0  0  0
 19 26  1  0  0  0  0
 21 22  1  0  0  0  0
 21 23  1  0  0  0  0
 21 27  1  0  0  0  0
 24 25  1  0  0  0  0
 26 28  2  0  0  0  0
 27 29  1  0  0  0  0
 29 30  1  0  0  0  0
 29 31  1  0  0  0  0
 29 32  2  0  0  0  0
 30 33  1  0  0  0  0
 33 34  1  0  0  0  0
 33 35  2  0  0  0  0
 33 36  1  0  0  0  0
 36 37  1  0  0  0  0
 37 38  1  0  0  0  0
 37 39  1  0  0  0  0
 37 56  1  0  0  0  0
 39 40  1  0  0  0  0
 39 41  1  0  0  0  0
 39 47  1  0  0  0  0
 41 42  1  0  0  0  0
 43 44  1  0  0  0  0
 43 45  1  0  0  0  0
 43 47  1  0  0  0  0
 43 49  1  0  0  0  0
 45 46  1  0  0  0  0
 47 48  1  0  0  0  0
 47 57  1  0  0  0  0
 49 50  1  0  0  0  0
 49 51  1  0  0  0  0
 49 56  1  0  0  0  0
 51 52  1  0  0  0  0
 51 53  1  0  0  0  0
 51 54  1  0  0  0  0
 54 55  1  0  0  0  0
 57 58  1  0  0  0  0
M  BCL ATM C_TeTeTeTe H_S N_TrTrTrPi2 O_Te2Te2TeTe C_TeTeTeTe H_S C_TrTrTrPi C_TrTrTrPi H_S C_TeTeTeTe H_S C_TeTeTeTe H_S O_Te2Te2TeTe H_S N_TrTrTrPi2 H_S O_Tr2Tr2TrPi C_TrTrTrPi H_S C_TeTeTeTe H_S H_S O_Te2Te2TeTe H_S C_TrTrTrPi O_Tr2TrTrPi2 O_Tr2Tr2TrPi P_TeTeTeTePi O_Tr2TrTrPi2 O_Te2Te2TeTe O_Tr2Tr2TrPi P_TeTeTeTePi O_Te2Te2TeTe O_Tr2Tr2TrPi O_Tr2TrTrPi2 C_TeTeTeTe H_S C_TeTeTeTe H_S O_Te2Te2TeTe H_S C_TeTeTeTe H_S O_Te2Te2TeTe H_S C_TeTeTeTe H_S C_TeTeTeTe H_S C_TeTeTeTe H_S H_S O_Te2Te2TeTe H_S O_Te2Te2TeTe O_Te2Te2TeTe H_S
M  BCL BND NonConjugatedSingleBond NonConjugatedSingleBond NonConjugatedSingleBondInRing NonConjugatedSingleBondInRing ConjugatedSingleBondInRing ConjugatedSingleBondInRing NonConjugatedSingleBondInRing NonConjugatedSingleBond NonConjugatedSingleBondInRing NonConjugatedSingleBond ConjugatedSingleBondInRing ConjugatedDoubleBond NonConjugatedSingleBond ConjugatedDoubleBondInRing NonConjugatedSingleBond NonConjugatedSingleBondInRing NonConjugatedSingleBond NonConjugatedSingleBond NonConjugatedSingleBond NonConjugatedSingleBond NonConjugatedSingleBond ConjugatedSingleBondInRing NonConjugatedSingleBond ConjugatedSingleBondInRing NonConjugatedSingleBond NonConjugatedSingleBond NonConjugatedSingleBond NonConjugatedSingleBond ConjugatedDoubleBond ConjugatedSingleBond ConjugatedSingleBond ConjugatedSingleBond ConjugatedDoubleBond ConjugatedSingleBond ConjugatedSingleBond ConjugatedDoubleBond ConjugatedSingleBond NonConjugatedSingleBond NonConjugatedSingleBond NonConjugatedSingleBondInRing NonConjugatedSingleBondInRing NonConjugatedSingleBond NonConjugatedSingleBond NonConjugatedSingleBondInRing NonConjugatedSingleBond NonConjugatedSingleBond NonConjugatedSingleBond NonConjugatedSingleBondInRing NonConjugatedSingleBondInRing NonConjugatedSingleBond NonConjugatedSingleBond NonConjugatedSingleBond NonConjugatedSingleBond NonConjugatedSingleBond NonConjugatedSingleBondInRing NonConjugatedSingleBond NonConjugatedSingleBond NonConjugatedSingleBond NonConjugatedSingleBond NonConjugatedSingleBond
M  BCL CHI   1   S   5   S  10   S  12   R  29   S  33   R  37   S  39   R  43   R  47   R  49   S
M  BCL DBI - Z - - -
M  END
> <ConfClashScore>
0.000182799 

> <ConfOneFourInteractionScore>
-0.965735 

> <ConfScore>
-0.052347 

> <ConfScorePBest>
0.0103605 

> <ConfTolerance>
1.72898 

$$$$
ChEBI.****
  PyMOL2.5          3D                             0

 58 60  0  0  0  0  0  0  0  0999 V2000
   13.8964   -9.6473    4.9054 C   0  0  0  1  0  0  0  0  0  0  0  0
   12.9302   -9.7412    4.4554 H   0  0  0  1  0  0  0  0  0  0  0  0
   13.7482   -9.4992    6.3557 N   0  0  0  1  0  0  0  0  0  0  0  0
   14.6928  -10.7736    4.6035 O   0  0  0  1  0  0  0  0  0  0  0  0
   14.6386   -8.4575    4.3241 C   0  0  0  1  0  0  0  0  0  0  0  0
   14.3928   -8.3143    3.2926 H   0  0  0  1  0  0  0  0  0  0  0  0
   14.6249  -10.1361    7.1913 C   0  0  0  1  0  0  0  0  0  0  0  0
   12.7274   -8.7200    6.8581 C   0  0  0  1  0  0  0  0  0  0  0  0
   12.0914   -8.2510    6.1820 H   0  0  0  1  0  0  0  0  0  0  0  0
   16.0159  -10.3571    4.1688 C   0  0  0  1  0  0  0  0  0  0  0  0
   16.7736  -10.8906    4.7038 H   0  0  0  1  0  0  0  0  0  0  0  0
   16.0801   -8.8645    4.4898 C   0  0  0  1  0  0  0  0  0  0  0  0
   16.7141   -8.3443    3.8027 H   0  0  0  1  0  0  0  0  0  0  0  0
   14.3517   -7.2631    5.0529 O   0  0  0  1  0  0  0  0  0  0  0  0
   13.5597   -6.8532    4.6974 H   0  0  0  1  0  0  0  0  0  0  0  0
   14.4006   -9.9245    8.5343 N   0  0  0  1  0  0  0  0  0  0  0  0
   15.0191  -10.3628    9.1554 H   0  0  0  1  0  0  0  0  0  0  0  0
   15.5345  -10.8369    6.7792 O   0  0  0  1  0  0  0  0  0  0  0  0
   12.5062   -8.5313    8.1705 C   0  0  0  1  0  0  0  0  0  0  0  0
   11.7129   -7.9463    8.5022 H   0  0  0  1  0  0  0  0  0  0  0  0
   16.1846  -10.5876    2.7031 C   0  0  0  1  0  0  0  0  0  0  0  0
   16.8416   -9.8500    2.2915 H   0  0  0  1  0  0  0  0  0  0  0  0
   15.2346  -10.5326    2.2138 H   0  0  0  1  0  0  0  0  0  0  0  0
   16.5356   -8.6376    5.8244 O   0  0  0  1  0  0  0  0  0  0  0  0
   17.2513   -9.2447    6.0263 H   0  0  0  1  0  0  0  0  0  0  0  0
   13.3989   -9.1620    9.0984 C   0  0  0  1  0  0  0  0  0  0  0  0
   16.7537  -11.9073    2.5282 O   0  0  0  1  0  0  0  0  0  0  0  0
   13.2805   -9.0330   10.3057 O   0  0  0  1  0  0  0  0  0  0  0  0
   17.1602  -12.4488    1.0547 P   0  0  0  1  0  0  0  0  0  0  0  0
   18.3967  -11.4609    0.7591 O   0  0  0  1  0  0  0  0  0  0  0  0
   17.7858  -13.7879    1.1807 O   0  0  0  0  0  0  0  0  0  0  0  0
   16.0700  -12.2271    0.0889 O   0  0  0  1  0  0  0  0  0  0  0  0
   18.2719  -10.0140    0.0432 P   0  0  0  1  0  0  0  0  0  0  0  0
   16.8520   -9.5602   -0.0309 O   0  0  0  0  0  0  0  0  0  0  0  0
   19.2457   -9.1510    0.7530 O   0  0  0  1  0  0  0  0  0  0  0  0
   18.6856  -10.2710   -1.4531 O   0  0  0  1  0  0  0  0  0  0  0  0
   18.0976  -11.3384   -2.2040 C   0  0  0  1  0  0  0  0  0  0  0  0
   17.0595  -11.4189   -1.9576 H   0  0  0  1  0  0  0  0  0  0  0  0
   18.8045  -12.6511   -1.8600 C   0  0  0  1  0  0  0  0  0  0  0  0
   18.6336  -12.8845   -0.8298 H   0  0  0  1  0  0  0  0  0  0  0  0
   20.2067  -12.5051   -2.0895 O   0  0  0  1  0  0  0  0  0  0  0  0
   20.3492  -11.9596   -2.8664 H   0  0  0  1  0  0  0  0  0  0  0  0
   18.3298  -13.4131   -4.2045 C   0  0  0  1  0  0  0  0  0  0  0  0
   19.3519  -13.3534   -4.5155 H   0  0  0  1  0  0  0  0  0  0  0  0
   17.6577  -14.4176   -4.9658 O   0  0  0  1  0  0  0  0  0  0  0  0
   17.2841  -14.0235   -5.7574 H   0  0  0  1  0  0  0  0  0  0  0  0
   18.2716  -13.7768   -2.7224 C   0  0  0  1  0  0  0  0  0  0  0  0
   18.8615  -14.6536   -2.5550 H   0  0  0  1  0  0  0  0  0  0  0  0
   17.6513  -12.0655   -4.4335 C   0  0  0  1  0  0  0  0  0  0  0  0
   16.6106  -12.1515   -4.1999 H   0  0  0  1  0  0  0  0  0  0  0  0
   17.8108  -11.6709   -5.8735 C   0  0  0  1  0  0  0  0  0  0  0  0
   17.4686  -10.6658   -6.0068 H   0  0  0  1  0  0  0  0  0  0  0  0
   17.2336  -12.3292   -6.4887 H   0  0  0  1  0  0  0  0  0  0  0  0
   19.1803  -11.7568   -6.2445 O   0  0  0  1  0  0  0  0  0  0  0  0
   19.7058  -11.9948   -5.4772 H   0  0  0  1  0  0  0  0  0  0  0  0
   18.2348  -11.0660   -3.6075 O   0  0  0  1  0  0  0  0  0  0  0  0
   16.9149  -14.0385   -2.3602 O   0  0  0  1  0  0  0  0  0  0  0  0
   16.8758  -14.8254   -1.8118 H   0  0  0  1  0  0  0  0  0  0  0  0
  1  2  1  0  0  0  0
  1  3  1  0  0  0  0
  1  4  1  0  0  0  0
  1  5  1  0  0  0  0
  3  7  1  0  0  0  0
  3  8  1  0  0  0  0
  4 10  1  0  0  0  0
  5  6  1  0  0  0  0
  5 12  1  0  0  0  0
  5 14  1  0  0  0  0
  7 16  1  0  0  0  0
  7 18  2  0  0  0  0
  8  9  1  0  0  0  0
  8 19  2  0  0  0  0
 10 11  1  0  0  0  0
 10 12  1  0  0  0  0
 10 21  1  0  0  0  0
 12 13  1  0  0  0  0
 12 24  1  0  0  0  0
 14 15  1  0  0  0  0
 16 17  1  0  0  0  0
 16 26  1  0  0  0  0
 19 20  1  0  0  0  0
 19 26  1  0  0  0  0
 21 22  1  0  0  0  0
 21 23  1  0  0  0  0
 21 27  1  0  0  0  0
 24 25  1  0  0  0  0
 26 28  2  0  0  0  0
 27 29  1  0  0  0  0
 29 30  1  0  0  0  0
 29 31  1  0  0  0  0
 29 32  2  0  0  0  0
 30 33  1  0  0  0  0
 33 34  1  0  0  0  0
 33 35  2  0  0  0  0
 33 36  1  0  0  0  0
 36 37  1  0  0  0  0
 37 38  1  0  0  0  0
 37 39  1  0  0  0  0
 37 56  1  0  0  0  0
 39 40  1  0  0  0  0
 39 41  1  0  0  0  0
 39 47  1  0  0  0  0
 41 42  1  0  0  0  0
 43 44  1  0  0  0  0
 43 45  1  0  0  0  0
 43 47  1  0  0  0  0
 43 49  1  0  0  0  0
 45 46  1  0  0  0  0
 47 48  1  0  0  0  0
 47 57  1  0  0  0  0
 49 50  1  0  0  0  0
 49 51  1  0  0  0  0
 49 56  1  0  0  0  0
 51 52  1  0  0  0  0
 51 53  1  0  0  0  0
 51 54  1  0  0  0  0
 54 55  1  0  0  0  0
 57 58  1  0  0  0  0
M  BCL ATM C_TeTeTeTe H_S N_TrTrTrPi2 O_Te2Te2TeTe C_TeTeTeTe H_S C_TrTrTrPi C_TrTrTrPi H_S C_TeTeTeTe H_S C_TeTeTeTe H_S O_Te2Te2TeTe H_S N_TrTrTrPi2 H_S O_Tr2Tr2TrPi C_TrTrTrPi H_S C_TeTeTeTe H_S H_S O_Te2Te2TeTe H_S C_TrTrTrPi O_Tr2TrTrPi2 O_Tr2Tr2TrPi P_TeTeTeTePi O_Tr2TrTrPi2 O_Te2Te2TeTe O_Tr2Tr2TrPi P_TeTeTeTePi O_Te2Te2TeTe O_Tr2Tr2TrPi O_Tr2TrTrPi2 C_TeTeTeTe H_S C_TeTeTeTe H_S O_Te2Te2TeTe H_S C_TeTeTeTe H_S O_Te2Te2TeTe H_S C_TeTeTeTe H_S C_TeTeTeTe H_S C_TeTeTeTe H_S H_S O_Te2Te2TeTe H_S O_Te2Te2TeTe O_Te2Te2TeTe H_S
M  BCL BND NonConjugatedSingleBond NonConjugatedSingleBond NonConjugatedSingleBondInRing NonConjugatedSingleBondInRing ConjugatedSingleBondInRing ConjugatedSingleBondInRing NonConjugatedSingleBondInRing NonConjugatedSingleBond NonConjugatedSingleBondInRing NonConjugatedSingleBond ConjugatedSingleBondInRing ConjugatedDoubleBond NonConjugatedSingleBond ConjugatedDoubleBondInRing NonConjugatedSingleBond NonConjugatedSingleBondInRing NonConjugatedSingleBond NonConjugatedSingleBond NonConjugatedSingleBond NonConjugatedSingleBond NonConjugatedSingleBond ConjugatedSingleBondInRing NonConjugatedSingleBond ConjugatedSingleBondInRing NonConjugatedSingleBond NonConjugatedSingleBond NonConjugatedSingleBond NonConjugatedSingleBond ConjugatedDoubleBond ConjugatedSingleBond ConjugatedSingleBond ConjugatedSingleBond ConjugatedDoubleBond ConjugatedSingleBond ConjugatedSingleBond ConjugatedDoubleBond ConjugatedSingleBond NonConjugatedSingleBond NonConjugatedSingleBond NonConjugatedSingleBondInRing NonConjugatedSingleBondInRing NonConjugatedSingleBond NonConjugatedSingleBond NonConjugatedSingleBondInRing NonConjugatedSingleBond NonConjugatedSingleBond NonConjugatedSingleBond NonConjugatedSingleBondInRing NonConjugatedSingleBondInRing NonConjugatedSingleBond NonConjugatedSingleBond NonConjugatedSingleBond NonConjugatedSingleBond NonConjugatedSingleBond NonConjugatedSingleBondInRing NonConjugatedSingleBond NonConjugatedSingleBond NonConjugatedSingleBond NonConjugatedSingleBond NonConjugatedSingleBond
M  BCL CHI   1   S   5   S  10   S  12   R  29   S  33   R  37   S  39   R  43   R  47   R  49   S
M  BCL DBI - Z - - -
M  END
> <ConfClashScore>
0 

> <ConfOneFourInteractionScore>
-0.978036 

> <ConfScore>
-0.0460775 

> <ConfScorePBest>
0.0102575 

> <ConfTolerance>
1.75757 

$$$$
ChEBI.****
  PyMOL2.5          3D                             0

 58 60  0  0  0  0  0  0  0  0999 V2000
   12.2604   -3.8096   -4.8410 C   0  0  0  1  0  0  0  0  0  0  0  0
   12.4628   -2.9474   -4.2404 H   0  0  0  1  0  0  0  0  0  0  0  0
   11.4880   -3.4143   -6.0177 N   0  0  0  1  0  0  0  0  0  0  0  0
   13.5024   -4.4683   -5.2351 O   0  0  0  1  0  0  0  0  0  0  0  0
   11.5198   -4.8569   -4.0415 C   0  0  0  1  0  0  0  0  0  0  0  0
   10.8781   -4.4014   -3.3164 H   0  0  0  1  0  0  0  0  0  0  0  0
   11.5853   -4.1661   -7.1633 C   0  0  0  1  0  0  0  0  0  0  0  0
   10.6885   -2.3058   -5.9466 C   0  0  0  1  0  0  0  0  0  0  0  0
   10.6807   -1.7575   -5.0629 H   0  0  0  1  0  0  0  0  0  0  0  0
   13.8050   -5.5158   -4.3573 C   0  0  0  1  0  0  0  0  0  0  0  0
   13.9182   -6.4278   -4.9054 H   0  0  0  1  0  0  0  0  0  0  0  0
   12.6438   -5.6479   -3.3591 C   0  0  0  1  0  0  0  0  0  0  0  0
   12.8981   -5.2182   -2.4128 H   0  0  0  1  0  0  0  0  0  0  0  0
   10.7484   -5.7012   -4.8973 O   0  0  0  1  0  0  0  0  0  0  0  0
   10.3165   -5.1681   -5.5687 H   0  0  0  1  0  0  0  0  0  0  0  0
   10.8028   -3.7445   -8.2308 N   0  0  0  1  0  0  0  0  0  0  0  0
   10.8523   -4.2584   -9.0638 H   0  0  0  1  0  0  0  0  0  0  0  0
   12.3131   -5.1423   -7.2384 O   0  0  0  1  0  0  0  0  0  0  0  0
    9.9116   -1.8905   -6.9649 C   0  0  0  1  0  0  0  0  0  0  0  0
    9.3010   -1.0545   -6.8655 H   0  0  0  1  0  0  0  0  0  0  0  0
   15.0560   -5.2175   -3.6337 C   0  0  0  1  0  0  0  0  0  0  0  0
   14.8191   -4.8510   -2.6568 H   0  0  0  1  0  0  0  0  0  0  0  0
   15.6048   -4.4727   -4.1712 H   0  0  0  1  0  0  0  0  0  0  0  0
   12.2740   -7.0156   -3.1778 O   0  0  0  1  0  0  0  0  0  0  0  0
   12.8403   -7.5746   -3.7148 H   0  0  0  1  0  0  0  0  0  0  0  0
    9.9505   -2.6389   -8.1984 C   0  0  0  1  0  0  0  0  0  0  0  0
   15.8657   -6.4105   -3.5116 O   0  0  0  1  0  0  0  0  0  0  0  0
    9.2739   -2.3219   -9.1628 O   0  0  0  1  0  0  0  0  0  0  0  0
   17.2066   -6.4585   -2.6962 P   0  0  0  1  0  0  0  0  0  0  0  0
   17.7086   -7.9674   -2.7110 O   0  0  0  1  0  0  0  0  0  0  0  0
   18.2538   -5.6709   -3.4175 O   0  0  0  0  0  0  0  0  0  0  0  0
   16.8946   -5.9945   -1.3259 O   0  0  0  1  0  0  0  0  0  0  0  0
   19.0648   -8.8276   -2.3246 P   0  0  0  1  0  0  0  0  0  0  0  0
   19.6179   -9.1530   -3.7032 O   0  0  0  0  0  0  0  0  0  0  0  0
   19.9414   -7.8957   -1.5261 O   0  0  0  1  0  0  0  0  0  0  0  0
   18.6072  -10.1203   -1.5529 O   0  0  0  1  0  0  0  0  0  0  0  0
   18.0452  -11.2418   -2.2596 C   0  0  0  1  0  0  0  0  0  0  0  0
   17.0097  -11.3398   -2.0085 H   0  0  0  1  0  0  0  0  0  0  0  0
   18.7878  -12.5183   -1.8594 C   0  0  0  1  0  0  0  0  0  0  0  0
   18.6235  -12.7109   -0.8197 H   0  0  0  1  0  0  0  0  0  0  0  0
   20.1855  -12.3443   -2.0970 O   0  0  0  1  0  0  0  0  0  0  0  0
   20.4412  -12.8372   -2.8801 H   0  0  0  1  0  0  0  0  0  0  0  0
   18.3337  -13.3951   -4.1676 C   0  0  0  1  0  0  0  0  0  0  0  0
   19.3537  -13.3212   -4.4824 H   0  0  0  1  0  0  0  0  0  0  0  0
   17.6892  -14.4500   -4.8832 O   0  0  0  1  0  0  0  0  0  0  0  0
   17.4490  -14.1422   -5.7602 H   0  0  0  1  0  0  0  0  0  0  0  0
   18.2857  -13.6949   -2.6709 C   0  0  0  1  0  0  0  0  0  0  0  0
   18.8994  -14.5472   -2.4661 H   0  0  0  1  0  0  0  0  0  0  0  0
   17.6185  -12.0779   -4.4545 C   0  0  0  1  0  0  0  0  0  0  0  0
   16.5807  -12.1819   -4.2159 H   0  0  0  1  0  0  0  0  0  0  0  0
   17.7657  -11.7452   -5.8990 C   0  0  0  1  0  0  0  0  0  0  0  0
   17.3796  -12.5630   -6.4708 H   0  0  0  1  0  0  0  0  0  0  0  0
   18.8078  -11.6232   -6.1088 H   0  0  0  1  0  0  0  0  0  0  0  0
   17.0950  -10.5707   -6.3022 O   0  0  0  1  0  0  0  0  0  0  0  0
   17.6906  -10.0228   -6.8188 H   0  0  0  1  0  0  0  0  0  0  0  0
   18.1746  -11.0276   -3.6739 O   0  0  0  1  0  0  0  0  0  0  0  0
   16.9368  -13.9774   -2.2958 O   0  0  0  1  0  0  0  0  0  0  0  0
   16.9042  -14.8110   -1.8207 H   0  0  0  1  0  0  0  0  0  0  0  0
  1  2  1  0  0  0  0
  1  3  1  0  0  0  0
  1  4  1  0  0  0  0
  1  5  1  0  0  0  0
  3  7  1  0  0  0  0
  3  8  1  0  0  0  0
  4 10  1  0  0  0  0
  5  6  1  0  0  0  0
  5 12  1  0  0  0  0
  5 14  1  0  0  0  0
  7 16  1  0  0  0  0
  7 18  2  0  0  0  0
  8  9  1  0  0  0  0
  8 19  2  0  0  0  0
 10 11  1  0  0  0  0
 10 12  1  0  0  0  0
 10 21  1  0  0  0  0
 12 13  1  0  0  0  0
 12 24  1  0  0  0  0
 14 15  1  0  0  0  0
 16 17  1  0  0  0  0
 16 26  1  0  0  0  0
 19 20  1  0  0  0  0
 19 26  1  0  0  0  0
 21 22  1  0  0  0  0
 21 23  1  0  0  0  0
 21 27  1  0  0  0  0
 24 25  1  0  0  0  0
 26 28  2  0  0  0  0
 27 29  1  0  0  0  0
 29 30  1  0  0  0  0
 29 31  1  0  0  0  0
 29 32  2  0  0  0  0
 30 33  1  0  0  0  0
 33 34  1  0  0  0  0
 33 35  2  0  0  0  0
 33 36  1  0  0  0  0
 36 37  1  0  0  0  0
 37 38  1  0  0  0  0
 37 39  1  0  0  0  0
 37 56  1  0  0  0  0
 39 40  1  0  0  0  0
 39 41  1  0  0  0  0
 39 47  1  0  0  0  0
 41 42  1  0  0  0  0
 43 44  1  0  0  0  0
 43 45  1  0  0  0  0
 43 47  1  0  0  0  0
 43 49  1  0  0  0  0
 45 46  1  0  0  0  0
 47 48  1  0  0  0  0
 47 57  1  0  0  0  0
 49 50  1  0  0  0  0
 49 51  1  0  0  0  0
 49 56  1  0  0  0  0
 51 52  1  0  0  0  0
 51 53  1  0  0  0  0
 51 54  1  0  0  0  0
 54 55  1  0  0  0  0
 57 58  1  0  0  0  0
M  BCL ATM C_TeTeTeTe H_S N_TrTrTrPi2 O_Te2Te2TeTe C_TeTeTeTe H_S C_TrTrTrPi C_TrTrTrPi H_S C_TeTeTeTe H_S C_TeTeTeTe H_S O_Te2Te2TeTe H_S N_TrTrTrPi2 H_S O_Tr2Tr2TrPi C_TrTrTrPi H_S C_TeTeTeTe H_S H_S O_Te2Te2TeTe H_S C_TrTrTrPi O_Tr2TrTrPi2 O_Tr2Tr2TrPi P_TeTeTeTePi O_Tr2TrTrPi2 O_Te2Te2TeTe O_Tr2Tr2TrPi P_TeTeTeTePi O_Te2Te2TeTe O_Tr2Tr2TrPi O_Tr2TrTrPi2 C_TeTeTeTe H_S C_TeTeTeTe H_S O_Te2Te2TeTe H_S C_TeTeTeTe H_S O_Te2Te2TeTe H_S C_TeTeTeTe H_S C_TeTeTeTe H_S C_TeTeTeTe H_S H_S O_Te2Te2TeTe H_S O_Te2Te2TeTe O_Te2Te2TeTe H_S
M  BCL BND NonConjugatedSingleBond NonConjugatedSingleBond NonConjugatedSingleBondInRing NonConjugatedSingleBondInRing ConjugatedSingleBondInRing ConjugatedSingleBondInRing NonConjugatedSingleBondInRing NonConjugatedSingleBond NonConjugatedSingleBondInRing NonConjugatedSingleBond ConjugatedSingleBondInRing ConjugatedDoubleBond NonConjugatedSingleBond ConjugatedDoubleBondInRing NonConjugatedSingleBond NonConjugatedSingleBondInRing NonConjugatedSingleBond NonConjugatedSingleBond NonConjugatedSingleBond NonConjugatedSingleBond NonConjugatedSingleBond ConjugatedSingleBondInRing NonConjugatedSingleBond ConjugatedSingleBondInRing NonConjugatedSingleBond NonConjugatedSingleBond NonConjugatedSingleBond NonConjugatedSingleBond ConjugatedDoubleBond ConjugatedSingleBond ConjugatedSingleBond ConjugatedSingleBond ConjugatedDoubleBond ConjugatedSingleBond ConjugatedSingleBond ConjugatedDoubleBond ConjugatedSingleBond NonConjugatedSingleBond NonConjugatedSingleBond NonConjugatedSingleBondInRing NonConjugatedSingleBondInRing NonConjugatedSingleBond NonConjugatedSingleBond NonConjugatedSingleBondInRing NonConjugatedSingleBond NonConjugatedSingleBond NonConjugatedSingleBond NonConjugatedSingleBondInRing NonConjugatedSingleBondInRing NonConjugatedSingleBond NonConjugatedSingleBond NonConjugatedSingleBond NonConjugatedSingleBond NonConjugatedSingleBond NonConjugatedSingleBondInRing NonConjugatedSingleBond NonConjugatedSingleBond NonConjugatedSingleBond NonConjugatedSingleBond NonConjugatedSingleBond
M  BCL CHI   1   S   5   S  10   S  12   R  29   S  33   R  37   S  39   R  43   R  47   R  49   S
M  BCL DBI - Z - - -
M  END
> <ConfClashScore>
6.29275e-05 

> <ConfOneFourInteractionScore>
-0.958843 

> <ConfScore>
-0.0451369 

> <ConfScorePBest>
0.0101545 

> <ConfTolerance>
1.73388 

$$$$
ChEBI.****
  PyMOL2.5          3D                             0

 58 60  0  0  0  0  0  0  0  0999 V2000
   14.1688   -4.8234    2.1027 C   0  0  0  1  0  0  0  0  0  0  0  0
   15.0678   -4.7132    2.6723 H   0  0  0  1  0  0  0  0  0  0  0  0
   13.6785   -3.5013    1.7014 N   0  0  0  1  0  0  0  0  0  0  0  0
   14.4185   -5.6024    0.9668 O   0  0  0  1  0  0  0  0  0  0  0  0
   13.1025   -5.5417    2.9447 C   0  0  0  1  0  0  0  0  0  0  0  0
   13.3676   -5.5451    3.9813 H   0  0  0  1  0  0  0  0  0  0  0  0
   13.8258   -3.0931    0.4036 C   0  0  0  1  0  0  0  0  0  0  0  0
   13.0757   -2.6876    2.6374 C   0  0  0  1  0  0  0  0  0  0  0  0
   12.9811   -3.0459    3.6091 H   0  0  0  1  0  0  0  0  0  0  0  0
   13.5212   -6.7534    0.9250 C   0  0  0  1  0  0  0  0  0  0  0  0
   12.6658   -6.5451    0.3170 H   0  0  0  1  0  0  0  0  0  0  0  0
   13.1156   -6.9629    2.3659 C   0  0  0  1  0  0  0  0  0  0  0  0
   13.8263   -7.5776    2.8777 H   0  0  0  1  0  0  0  0  0  0  0  0
   11.8213   -4.9316    2.7822 O   0  0  0  1  0  0  0  0  0  0  0  0
   11.6396   -4.3628    3.5339 H   0  0  0  1  0  0  0  0  0  0  0  0
   13.3247   -1.8386    0.1319 N   0  0  0  1  0  0  0  0  0  0  0  0
   13.4098   -1.5244   -0.7924 H   0  0  0  1  0  0  0  0  0  0  0  0
   14.3595   -3.7861   -0.4468 O   0  0  0  1  0  0  0  0  0  0  0  0
   12.6032   -1.4585    2.3674 C   0  0  0  1  0  0  0  0  0  0  0  0
   12.1697   -0.8749    3.1111 H   0  0  0  1  0  0  0  0  0  0  0  0
   14.2205   -7.9424    0.4008 C   0  0  0  1  0  0  0  0  0  0  0  0
   13.5194   -8.7431    0.2902 H   0  0  0  1  0  0  0  0  0  0  0  0
   14.9875   -8.2317    1.0884 H   0  0  0  1  0  0  0  0  0  0  0  0
   11.8208   -7.5601    2.4500 O   0  0  0  1  0  0  0  0  0  0  0  0
   11.1536   -6.8722    2.5060 H   0  0  0  1  0  0  0  0  0  0  0  0
   12.7160   -0.9776    1.0214 C   0  0  0  1  0  0  0  0  0  0  0  0
   14.8179   -7.6512   -0.8845 O   0  0  0  1  0  0  0  0  0  0  0  0
   12.3008    0.1212    0.6847 O   0  0  0  1  0  0  0  0  0  0  0  0
   15.7667   -8.6625   -1.6470 P   0  0  0  1  0  0  0  0  0  0  0  0
   17.0483   -8.6557   -0.7056 O   0  0  0  1  0  0  0  0  0  0  0  0
   15.1936  -10.0306   -1.6587 O   0  0  0  0  0  0  0  0  0  0  0  0
   16.1132   -8.0306   -2.9320 O   0  0  0  1  0  0  0  0  0  0  0  0
   18.0858   -9.6840   -0.1081 P   0  0  0  1  0  0  0  0  0  0  0  0
   19.1874   -8.8471    0.5881 O   0  0  0  0  0  0  0  0  0  0  0  0
   17.4610  -10.7426    0.6909 O   0  0  0  1  0  0  0  0  0  0  0  0
   18.7425  -10.2587   -1.4176 O   0  0  0  1  0  0  0  0  0  0  0  0
   18.1180  -11.3319   -2.1467 C   0  0  0  1  0  0  0  0  0  0  0  0
   17.0902  -11.4084   -1.8592 H   0  0  0  1  0  0  0  0  0  0  0  0
   18.8338  -12.6462   -1.8283 C   0  0  0  1  0  0  0  0  0  0  0  0
   18.7031  -12.8771   -0.7918 H   0  0  0  1  0  0  0  0  0  0  0  0
   20.2262  -12.5054   -2.1135 O   0  0  0  1  0  0  0  0  0  0  0  0
   20.3845  -12.6978   -3.0406 H   0  0  0  1  0  0  0  0  0  0  0  0
   18.2640  -13.4110   -4.1507 C   0  0  0  1  0  0  0  0  0  0  0  0
   19.2731  -13.3553   -4.5021 H   0  0  0  1  0  0  0  0  0  0  0  0
   17.5590  -14.4147   -4.8827 O   0  0  0  1  0  0  0  0  0  0  0  0
   18.1182  -14.7495   -5.5875 H   0  0  0  1  0  0  0  0  0  0  0  0
   18.2634  -13.7717   -2.6667 C   0  0  0  1  0  0  0  0  0  0  0  0
   18.8566  -14.6503   -2.5211 H   0  0  0  1  0  0  0  0  0  0  0  0
   17.5813  -12.0616   -4.3553 C   0  0  0  1  0  0  0  0  0  0  0  0
   16.5505  -12.1437   -4.0804 H   0  0  0  1  0  0  0  0  0  0  0  0
   17.6849  -11.6702   -5.8013 C   0  0  0  1  0  0  0  0  0  0  0  0
   18.3402  -10.8297   -5.8961 H   0  0  0  1  0  0  0  0  0  0  0  0
   16.7146  -11.4099   -6.1697 H   0  0  0  1  0  0  0  0  0  0  0  0
   18.2004  -12.7588   -6.5561 O   0  0  0  1  0  0  0  0  0  0  0  0
   17.8743  -12.7066   -7.4575 H   0  0  0  1  0  0  0  0  0  0  0  0
   18.2003  -11.0625   -3.5550 O   0  0  0  1  0  0  0  0  0  0  0  0
   16.9200  -14.0285   -2.2502 O   0  0  0  1  0  0  0  0  0  0  0  0
   16.3219  -13.4400   -2.7166 H   0  0  0  1  0  0  0  0  0  0  0  0
  1  2  1  0  0  0  0
  1  3  1  0  0  0  0
  1  4  1  0  0  0  0
  1  5  1  0  0  0  0
  3  7  1  0  0  0  0
  3  8  1  0  0  0  0
  4 10  1  0  0  0  0
  5  6  1  0  0  0  0
  5 12  1  0  0  0  0
  5 14  1  0  0  0  0
  7 16  1  0  0  0  0
  7 18  2  0  0  0  0
  8  9  1  0  0  0  0
  8 19  2  0  0  0  0
 10 11  1  0  0  0  0
 10 12  1  0  0  0  0
 10 21  1  0  0  0  0
 12 13  1  0  0  0  0
 12 24  1  0  0  0  0
 14 15  1  0  0  0  0
 16 17  1  0  0  0  0
 16 26  1  0  0  0  0
 19 20  1  0  0  0  0
 19 26  1  0  0  0  0
 21 22  1  0  0  0  0
 21 23  1  0  0  0  0
 21 27  1  0  0  0  0
 24 25  1  0  0  0  0
 26 28  2  0  0  0  0
 27 29  1  0  0  0  0
 29 30  1  0  0  0  0
 29 31  1  0  0  0  0
 29 32  2  0  0  0  0
 30 33  1  0  0  0  0
 33 34  1  0  0  0  0
 33 35  2  0  0  0  0
 33 36  1  0  0  0  0
 36 37  1  0  0  0  0
 37 38  1  0  0  0  0
 37 39  1  0  0  0  0
 37 56  1  0  0  0  0
 39 40  1  0  0  0  0
 39 41  1  0  0  0  0
 39 47  1  0  0  0  0
 41 42  1  0  0  0  0
 43 44  1  0  0  0  0
 43 45  1  0  0  0  0
 43 47  1  0  0  0  0
 43 49  1  0  0  0  0
 45 46  1  0  0  0  0
 47 48  1  0  0  0  0
 47 57  1  0  0  0  0
 49 50  1  0  0  0  0
 49 51  1  0  0  0  0
 49 56  1  0  0  0  0
 51 52  1  0  0  0  0
 51 53  1  0  0  0  0
 51 54  1  0  0  0  0
 54 55  1  0  0  0  0
 57 58  1  0  0  0  0
M  BCL ATM C_TeTeTeTe H_S N_TrTrTrPi2 O_Te2Te2TeTe C_TeTeTeTe H_S C_TrTrTrPi C_TrTrTrPi H_S C_TeTeTeTe H_S C_TeTeTeTe H_S O_Te2Te2TeTe H_S N_TrTrTrPi2 H_S O_Tr2Tr2TrPi C_TrTrTrPi H_S C_TeTeTeTe H_S H_S O_Te2Te2TeTe H_S C_TrTrTrPi O_Tr2TrTrPi2 O_Tr2Tr2TrPi P_TeTeTeTePi O_Tr2TrTrPi2 O_Te2Te2TeTe O_Tr2Tr2TrPi P_TeTeTeTePi O_Te2Te2TeTe O_Tr2Tr2TrPi O_Tr2TrTrPi2 C_TeTeTeTe H_S C_TeTeTeTe H_S O_Te2Te2TeTe H_S C_TeTeTeTe H_S O_Te2Te2TeTe H_S C_TeTeTeTe H_S C_TeTeTeTe H_S C_TeTeTeTe H_S H_S O_Te2Te2TeTe H_S O_Te2Te2TeTe O_Te2Te2TeTe H_S
M  BCL BND NonConjugatedSingleBond NonConjugatedSingleBond NonConjugatedSingleBondInRing NonConjugatedSingleBondInRing ConjugatedSingleBondInRing ConjugatedSingleBondInRing NonConjugatedSingleBondInRing NonConjugatedSingleBond NonConjugatedSingleBondInRing NonConjugatedSingleBond ConjugatedSingleBondInRing ConjugatedDoubleBond NonConjugatedSingleBond ConjugatedDoubleBondInRing NonConjugatedSingleBond NonConjugatedSingleBondInRing NonConjugatedSingleBond NonConjugatedSingleBond NonConjugatedSingleBond NonConjugatedSingleBond NonConjugatedSingleBond ConjugatedSingleBondInRing NonConjugatedSingleBond ConjugatedSingleBondInRing NonConjugatedSingleBond NonConjugatedSingleBond NonConjugatedSingleBond NonConjugatedSingleBond ConjugatedDoubleBond ConjugatedSingleBond ConjugatedSingleBond ConjugatedSingleBond ConjugatedDoubleBond ConjugatedSingleBond ConjugatedSingleBond ConjugatedDoubleBond ConjugatedSingleBond NonConjugatedSingleBond NonConjugatedSingleBond NonConjugatedSingleBondInRing NonConjugatedSingleBondInRing NonConjugatedSingleBond NonConjugatedSingleBond NonConjugatedSingleBondInRing NonConjugatedSingleBond NonConjugatedSingleBond NonConjugatedSingleBond NonConjugatedSingleBondInRing NonConjugatedSingleBondInRing NonConjugatedSingleBond NonConjugatedSingleBond NonConjugatedSingleBond NonConjugatedSingleBond NonConjugatedSingleBond NonConjugatedSingleBondInRing NonConjugatedSingleBond NonConjugatedSingleBond NonConjugatedSingleBond NonConjugatedSingleBond NonConjugatedSingleBond
M  BCL CHI   1   S   5   S  10   S  12   R  29   S  33   R  37   S  39   R  43   R  47   R  49   S
M  BCL DBI - Z - - -
M  END
> <ConfClashScore>
0 

> <ConfOneFourInteractionScore>
-0.979771 

> <ConfScore>
-0.0383798 

> <ConfScorePBest>
0.0100515 

> <ConfTolerance>
1.79194 

$$$$
ChEBI.****
  PyMOL2.5          3D                             0

 58 60  0  0  0  0  0  0  0  0999 V2000
   19.2756   -3.7139   -3.5008 C   0  0  0  1  0  0  0  0  0  0  0  0
   20.0252   -3.3184   -2.8477 H   0  0  0  1  0  0  0  0  0  0  0  0
   18.3098   -2.6570   -3.8365 N   0  0  0  1  0  0  0  0  0  0  0  0
   19.8669   -4.2323   -4.6736 O   0  0  0  1  0  0  0  0  0  0  0  0
   18.5701   -4.8888   -2.8481 C   0  0  0  1  0  0  0  0  0  0  0  0
   19.2394   -5.4452   -2.2258 H   0  0  0  1  0  0  0  0  0  0  0  0
   17.8935   -1.8130   -2.8365 C   0  0  0  1  0  0  0  0  0  0  0  0
   17.8604   -2.5620   -5.1629 C   0  0  0  1  0  0  0  0  0  0  0  0
   18.2076   -3.2067   -5.9014 H   0  0  0  1  0  0  0  0  0  0  0  0
   19.3267   -5.5478   -4.9748 C   0  0  0  1  0  0  0  0  0  0  0  0
   19.0150   -5.6022   -5.9969 H   0  0  0  1  0  0  0  0  0  0  0  0
   18.1292   -5.7015   -4.0381 C   0  0  0  1  0  0  0  0  0  0  0  0
   17.9693   -6.7259   -3.7737 H   0  0  0  1  0  0  0  0  0  0  0  0
   17.4502   -4.4547   -2.0752 O   0  0  0  1  0  0  0  0  0  0  0  0
   17.7401   -3.8112   -1.4243 H   0  0  0  1  0  0  0  0  0  0  0  0
   16.9711   -0.8599   -3.1736 N   0  0  0  1  0  0  0  0  0  0  0  0
   16.6626   -0.2442   -2.4764 H   0  0  0  1  0  0  0  0  0  0  0  0
   18.3260   -1.9085   -1.6998 O   0  0  0  1  0  0  0  0  0  0  0  0
   16.9396   -1.5776   -5.4427 C   0  0  0  1  0  0  0  0  0  0  0  0
   16.6043   -1.4749   -6.4218 H   0  0  0  1  0  0  0  0  0  0  0  0
   20.3166   -6.5798   -4.7138 C   0  0  0  1  0  0  0  0  0  0  0  0
   21.1385   -6.4422   -5.3849 H   0  0  0  1  0  0  0  0  0  0  0  0
   19.8683   -7.5353   -4.8893 H   0  0  0  1  0  0  0  0  0  0  0  0
   16.9394   -5.1684   -4.6214 O   0  0  0  1  0  0  0  0  0  0  0  0
   16.9113   -5.3932   -5.5543 H   0  0  0  1  0  0  0  0  0  0  0  0
   16.4397   -0.7182   -4.4789 C   0  0  0  1  0  0  0  0  0  0  0  0
   20.8207   -6.5469   -3.3493 O   0  0  0  1  0  0  0  0  0  0  0  0
   15.5881    0.1156   -4.7398 O   0  0  0  1  0  0  0  0  0  0  0  0
   21.5856   -7.8050   -2.7280 P   0  0  0  1  0  0  0  0  0  0  0  0
   20.3549   -8.8371   -2.6942 O   0  0  0  1  0  0  0  0  0  0  0  0
   22.6200   -8.3147   -3.6644 O   0  0  0  0  0  0  0  0  0  0  0  0
   21.9471   -7.4528   -1.3322 O   0  0  0  1  0  0  0  0  0  0  0  0
   18.9255   -8.7101   -2.2061 P   0  0  0  1  0  0  0  0  0  0  0  0
   18.7037   -7.6221   -1.1856 O   0  0  0  0  0  0  0  0  0  0  0  0
   18.0570   -8.6906   -3.3884 O   0  0  0  1  0  0  0  0  0  0  0  0
   18.6973  -10.1312   -1.5737 O   0  0  0  1  0  0  0  0  0  0  0  0
   18.0809  -11.2018   -2.2723 C   0  0  0  1  0  0  0  0  0  0  0  0
   17.0490  -11.2617   -1.9957 H   0  0  0  1  0  0  0  0  0  0  0  0
   18.7805  -12.5137   -1.9111 C   0  0  0  1  0  0  0  0  0  0  0  0
   18.6350  -12.7164   -0.8706 H   0  0  0  1  0  0  0  0  0  0  0  0
   20.1748  -12.3931   -2.1819 O   0  0  0  1  0  0  0  0  0  0  0  0
   20.4950  -13.2050   -2.5818 H   0  0  0  1  0  0  0  0  0  0  0  0
   18.2321  -13.3337   -4.2197 C   0  0  0  1  0  0  0  0  0  0  0  0
   19.2459  -13.2961   -4.5599 H   0  0  0  1  0  0  0  0  0  0  0  0
   17.5268  -14.3497   -4.9341 O   0  0  0  1  0  0  0  0  0  0  0  0
   18.1092  -14.7457   -5.5866 H   0  0  0  1  0  0  0  0  0  0  0  0
   18.2100  -13.6556   -2.7270 C   0  0  0  1  0  0  0  0  0  0  0  0
   18.7932  -14.5353   -2.5513 H   0  0  0  1  0  0  0  0  0  0  0  0
   17.5644  -11.9840   -4.4677 C   0  0  0  1  0  0  0  0  0  0  0  0
   16.5296  -12.0497   -4.2037 H   0  0  0  1  0  0  0  0  0  0  0  0
   17.6893  -11.6312   -5.9223 C   0  0  0  1  0  0  0  0  0  0  0  0
   17.2244  -10.6860   -6.1101 H   0  0  0  1  0  0  0  0  0  0  0  0
   17.2225  -12.3843   -6.5221 H   0  0  0  1  0  0  0  0  0  0  0  0
   19.0760  -11.5590   -6.2265 O   0  0  0  1  0  0  0  0  0  0  0  0
   19.4753  -10.8389   -5.7328 H   0  0  0  1  0  0  0  0  0  0  0  0
   18.1829  -10.9700   -3.6860 O   0  0  0  1  0  0  0  0  0  0  0  0
   16.8606  -13.8891   -2.3211 O   0  0  0  1  0  0  0  0  0  0  0  0
   16.8348  -14.6214   -1.7008 H   0  0  0  1  0  0  0  0  0  0  0  0
  1  2  1  0  0  0  0
  1  3  1  0  0  0  0
  1  4  1  0  0  0  0
  1  5  1  0  0  0  0
  3  7  1  0  0  0  0
  3  8  1  0  0  0  0
  4 10  1  0  0  0  0
  5  6  1  0  0  0  0
  5 12  1  0  0  0  0
  5 14  1  0  0  0  0
  7 16  1  0  0  0  0
  7 18  2  0  0  0  0
  8  9  1  0  0  0  0
  8 19  2  0  0  0  0
 10 11  1  0  0  0  0
 10 12  1  0  0  0  0
 10 21  1  0  0  0  0
 12 13  1  0  0  0  0
 12 24  1  0  0  0  0
 14 15  1  0  0  0  0
 16 17  1  0  0  0  0
 16 26  1  0  0  0  0
 19 20  1  0  0  0  0
 19 26  1  0  0  0  0
 21 22  1  0  0  0  0
 21 23  1  0  0  0  0
 21 27  1  0  0  0  0
 24 25  1  0  0  0  0
 26 28  2  0  0  0  0
 27 29  1  0  0  0  0
 29 30  1  0  0  0  0
 29 31  1  0  0  0  0
 29 32  2  0  0  0  0
 30 33  1  0  0  0  0
 33 34  1  0  0  0  0
 33 35  2  0  0  0  0
 33 36  1  0  0  0  0
 36 37  1  0  0  0  0
 37 38  1  0  0  0  0
 37 39  1  0  0  0  0
 37 56  1  0  0  0  0
 39 40  1  0  0  0  0
 39 41  1  0  0  0  0
 39 47  1  0  0  0  0
 41 42  1  0  0  0  0
 43 44  1  0  0  0  0
 43 45  1  0  0  0  0
 43 47  1  0  0  0  0
 43 49  1  0  0  0  0
 45 46  1  0  0  0  0
 47 48  1  0  0  0  0
 47 57  1  0  0  0  0
 49 50  1  0  0  0  0
 49 51  1  0  0  0  0
 49 56  1  0  0  0  0
 51 52  1  0  0  0  0
 51 53  1  0  0  0  0
 51 54  1  0  0  0  0
 54 55  1  0  0  0  0
 57 58  1  0  0  0  0
M  BCL ATM C_TeTeTeTe H_S N_TrTrTrPi2 O_Te2Te2TeTe C_TeTeTeTe H_S C_TrTrTrPi C_TrTrTrPi H_S C_TeTeTeTe H_S C_TeTeTeTe H_S O_Te2Te2TeTe H_S N_TrTrTrPi2 H_S O_Tr2Tr2TrPi C_TrTrTrPi H_S C_TeTeTeTe H_S H_S O_Te2Te2TeTe H_S C_TrTrTrPi O_Tr2TrTrPi2 O_Tr2Tr2TrPi P_TeTeTeTePi O_Tr2TrTrPi2 O_Te2Te2TeTe O_Tr2Tr2TrPi P_TeTeTeTePi O_Te2Te2TeTe O_Tr2Tr2TrPi O_Tr2TrTrPi2 C_TeTeTeTe H_S C_TeTeTeTe H_S O_Te2Te2TeTe H_S C_TeTeTeTe H_S O_Te2Te2TeTe H_S C_TeTeTeTe H_S C_TeTeTeTe H_S C_TeTeTeTe H_S H_S O_Te2Te2TeTe H_S O_Te2Te2TeTe O_Te2Te2TeTe H_S
M  BCL BND NonConjugatedSingleBond NonConjugatedSingleBond NonConjugatedSingleBondInRing NonConjugatedSingleBondInRing ConjugatedSingleBondInRing ConjugatedSingleBondInRing NonConjugatedSingleBondInRing NonConjugatedSingleBond NonConjugatedSingleBondInRing NonConjugatedSingleBond ConjugatedSingleBondInRing ConjugatedDoubleBond NonConjugatedSingleBond ConjugatedDoubleBondInRing NonConjugatedSingleBond NonConjugatedSingleBondInRing NonConjugatedSingleBond NonConjugatedSingleBond NonConjugatedSingleBond NonConjugatedSingleBond NonConjugatedSingleBond ConjugatedSingleBondInRing NonConjugatedSingleBond ConjugatedSingleBondInRing NonConjugatedSingleBond NonConjugatedSingleBond NonConjugatedSingleBond NonConjugatedSingleBond ConjugatedDoubleBond ConjugatedSingleBond ConjugatedSingleBond ConjugatedSingleBond ConjugatedDoubleBond ConjugatedSingleBond ConjugatedSingleBond ConjugatedDoubleBond ConjugatedSingleBond NonConjugatedSingleBond NonConjugatedSingleBond NonConjugatedSingleBondInRing NonConjugatedSingleBondInRing NonConjugatedSingleBond NonConjugatedSingleBond NonConjugatedSingleBondInRing NonConjugatedSingleBond NonConjugatedSingleBond NonConjugatedSingleBond NonConjugatedSingleBondInRing NonConjugatedSingleBondInRing NonConjugatedSingleBond NonConjugatedSingleBond NonConjugatedSingleBond NonConjugatedSingleBond NonConjugatedSingleBond NonConjugatedSingleBondInRing NonConjugatedSingleBond NonConjugatedSingleBond NonConjugatedSingleBond NonConjugatedSingleBond NonConjugatedSingleBond
M  BCL CHI   1   S   5   S  10   S  12   R  29   S  33   R  37   S  39   R  43   R  47   R  49   S
M  BCL DBI - Z - - -
M  END
> <ConfClashScore>
0 

> <ConfOneFourInteractionScore>
-0.976265 

> <ConfScore>
-0.0266822 

> <ConfScorePBest>
0.0099485 

> <ConfTolerance>
1.60703 

$$$$
ChEBI.****
  PyMOL2.5          3D                             0

 58 60  0  0  0  0  0  0  0  0999 V2000
   23.7357   -4.3381    2.1678 C   0  0  0  1  0  0  0  0  0  0  0  0
   24.7549   -4.6627    2.1417 H   0  0  0  1  0  0  0  0  0  0  0  0
   23.6850   -2.9151    2.4999 N   0  0  0  1  0  0  0  0  0  0  0  0
   23.1102   -4.5769    0.9245 O   0  0  0  1  0  0  0  0  0  0  0  0
   22.9472   -5.1475    3.1813 C   0  0  0  1  0  0  0  0  0  0  0  0
   23.3027   -6.1554    3.2328 H   0  0  0  1  0  0  0  0  0  0  0  0
   23.0512   -2.0474    1.6526 C   0  0  0  1  0  0  0  0  0  0  0  0
   24.2765   -2.4675    3.6623 C   0  0  0  1  0  0  0  0  0  0  0  0
   24.7399   -3.1672    4.2767 H   0  0  0  1  0  0  0  0  0  0  0  0
   21.8143   -5.2054    1.1216 C   0  0  0  1  0  0  0  0  0  0  0  0
   21.0582   -4.6925    0.5648 H   0  0  0  1  0  0  0  0  0  0  0  0
   21.5491   -5.0903    2.6220 C   0  0  0  1  0  0  0  0  0  0  0  0
   20.9530   -5.9050    2.9768 H   0  0  0  1  0  0  0  0  0  0  0  0
   23.0097   -4.5530    4.4786 O   0  0  0  1  0  0  0  0  0  0  0  0
   22.1198   -4.4173    4.8121 H   0  0  0  1  0  0  0  0  0  0  0  0
   23.0554   -0.7321    2.0631 N   0  0  0  1  0  0  0  0  0  0  0  0
   22.6011   -0.0900    1.4785 H   0  0  0  1  0  0  0  0  0  0  0  0
   22.5235   -2.4103    0.6142 O   0  0  0  1  0  0  0  0  0  0  0  0
   24.2894   -1.1799    4.0478 C   0  0  0  1  0  0  0  0  0  0  0  0
   24.7623   -0.8876    4.9268 H   0  0  0  1  0  0  0  0  0  0  0  0
   21.8552   -6.6214    0.7082 C   0  0  0  1  0  0  0  0  0  0  0  0
   20.9028   -7.0711    0.8967 H   0  0  0  1  0  0  0  0  0  0  0  0
   22.6087   -7.1312    1.2714 H   0  0  0  1  0  0  0  0  0  0  0  0
   20.9084   -3.8544    2.9450 O   0  0  0  1  0  0  0  0  0  0  0  0
   21.4260   -3.3882    3.6055 H   0  0  0  1  0  0  0  0  0  0  0  0
   23.6303   -0.2221    3.2088 C   0  0  0  1  0  0  0  0  0  0  0  0
   22.1613   -6.7272   -0.7021 O   0  0  0  1  0  0  0  0  0  0  0  0
   23.5812    0.9660    3.4895 O   0  0  0  1  0  0  0  0  0  0  0  0
   21.9270   -8.1140   -1.4266 P   0  0  0  1  0  0  0  0  0  0  0  0
   20.3251   -8.2087   -1.4114 O   0  0  0  1  0  0  0  0  0  0  0  0
   22.3867   -8.0670   -2.8368 O   0  0  0  0  0  0  0  0  0  0  0  0
   22.4729   -9.1462   -0.5445 O   0  0  0  1  0  0  0  0  0  0  0  0
   19.2027   -8.8354   -2.3968 P   0  0  0  1  0  0  0  0  0  0  0  0
   18.0431   -7.9243   -2.4854 O   0  0  0  0  0  0  0  0  0  0  0  0
   19.9604   -9.2416   -3.5903 O   0  0  0  1  0  0  0  0  0  0  0  0
   18.7124  -10.0946   -1.5905 O   0  0  0  1  0  0  0  0  0  0  0  0
   18.0954  -11.1943   -2.2565 C   0  0  0  1  0  0  0  0  0  0  0  0
   17.0725  -11.2682   -1.9515 H   0  0  0  1  0  0  0  0  0  0  0  0
   18.8291  -12.4861   -1.8906 C   0  0  0  1  0  0  0  0  0  0  0  0
   18.7149  -12.6723   -0.8432 H   0  0  0  1  0  0  0  0  0  0  0  0
   20.2125  -12.3447   -2.2004 O   0  0  0  1  0  0  0  0  0  0  0  0
   20.6110  -13.2133   -2.2914 H   0  0  0  1  0  0  0  0  0  0  0  0
   18.2360  -13.3583   -4.1689 C   0  0  0  1  0  0  0  0  0  0  0  0
   19.2396  -13.3082   -4.5365 H   0  0  0  1  0  0  0  0  0  0  0  0
   17.5317  -14.4003   -4.8461 O   0  0  0  1  0  0  0  0  0  0  0  0
   18.1609  -15.0093   -5.2395 H   0  0  0  1  0  0  0  0  0  0  0  0
   18.2593  -13.6532   -2.6706 C   0  0  0  1  0  0  0  0  0  0  0  0
   18.8635  -14.5185   -2.4948 H   0  0  0  1  0  0  0  0  0  0  0  0
   17.5365  -12.0261   -4.4231 C   0  0  0  1  0  0  0  0  0  0  0  0
   16.5104  -12.1061   -4.1305 H   0  0  0  1  0  0  0  0  0  0  0  0
   17.6157  -11.7005   -5.8745 C   0  0  0  1  0  0  0  0  0  0  0  0
   17.1560  -10.7465   -6.0280 H   0  0  0  1  0  0  0  0  0  0  0  0
   17.0743  -12.4489   -6.4144 H   0  0  0  1  0  0  0  0  0  0  0  0
   18.9273  -11.6457   -6.3931 O   0  0  0  1  0  0  0  0  0  0  0  0
   19.5302  -11.3461   -5.7088 H   0  0  0  1  0  0  0  0  0  0  0  0
   18.1558  -10.9866   -3.6763 O   0  0  0  1  0  0  0  0  0  0  0  0
   16.9291  -13.9036   -2.2260 O   0  0  0  1  0  0  0  0  0  0  0  0
   16.4051  -14.2402   -2.9565 H   0  0  0  1  0  0  0  0  0  0  0  0
  1  2  1  0  0  0  0
  1  3  1  0  0  0  0
  1  4  1  0  0  0  0
  1  5  1  0  0  0  0
  3  7  1  0  0  0  0
  3  8  1  0  0  0  0
  4 10  1  0  0  0  0
  5  6  1  0  0  0  0
  5 12  1  0  0  0  0
  5 14  1  0  0  0  0
  7 16  1  0  0  0  0
  7 18  2  0  0  0  0
  8  9  1  0  0  0  0
  8 19  2  0  0  0  0
 10 11  1  0  0  0  0
 10 12  1  0  0  0  0
 10 21  1  0  0  0  0
 12 13  1  0  0  0  0
 12 24  1  0  0  0  0
 14 15  1  0  0  0  0
 16 17  1  0  0  0  0
 16 26  1  0  0  0  0
 19 20  1  0  0  0  0
 19 26  1  0  0  0  0
 21 22  1  0  0  0  0
 21 23  1  0  0  0  0
 21 27  1  0  0  0  0
 24 25  1  0  0  0  0
 26 28  2  0  0  0  0
 27 29  1  0  0  0  0
 29 30  1  0  0  0  0
 29 31  1  0  0  0  0
 29 32  2  0  0  0  0
 30 33  1  0  0  0  0
 33 34  1  0  0  0  0
 33 35  2  0  0  0  0
 33 36  1  0  0  0  0
 36 37  1  0  0  0  0
 37 38  1  0  0  0  0
 37 39  1  0  0  0  0
 37 56  1  0  0  0  0
 39 40  1  0  0  0  0
 39 41  1  0  0  0  0
 39 47  1  0  0  0  0
 41 42  1  0  0  0  0
 43 44  1  0  0  0  0
 43 45  1  0  0  0  0
 43 47  1  0  0  0  0
 43 49  1  0  0  0  0
 45 46  1  0  0  0  0
 47 48  1  0  0  0  0
 47 57  1  0  0  0  0
 49 50  1  0  0  0  0
 49 51  1  0  0  0  0
 49 56  1  0  0  0  0
 51 52  1  0  0  0  0
 51 53  1  0  0  0  0
 51 54  1  0  0  0  0
 54 55  1  0  0  0  0
 57 58  1  0  0  0  0
M  BCL ATM C_TeTeTeTe H_S N_TrTrTrPi2 O_Te2Te2TeTe C_TeTeTeTe H_S C_TrTrTrPi C_TrTrTrPi H_S C_TeTeTeTe H_S C_TeTeTeTe H_S O_Te2Te2TeTe H_S N_TrTrTrPi2 H_S O_Tr2Tr2TrPi C_TrTrTrPi H_S C_TeTeTeTe H_S H_S O_Te2Te2TeTe H_S C_TrTrTrPi O_Tr2TrTrPi2 O_Tr2Tr2TrPi P_TeTeTeTePi O_Tr2TrTrPi2 O_Te2Te2TeTe O_Tr2Tr2TrPi P_TeTeTeTePi O_Te2Te2TeTe O_Tr2Tr2TrPi O_Tr2TrTrPi2 C_TeTeTeTe H_S C_TeTeTeTe H_S O_Te2Te2TeTe H_S C_TeTeTeTe H_S O_Te2Te2TeTe H_S C_TeTeTeTe H_S C_TeTeTeTe H_S C_TeTeTeTe H_S H_S O_Te2Te2TeTe H_S O_Te2Te2TeTe O_Te2Te2TeTe H_S
M  BCL BND NonConjugatedSingleBond NonConjugatedSingleBond NonConjugatedSingleBondInRing NonConjugatedSingleBondInRing ConjugatedSingleBondInRing ConjugatedSingleBondInRing NonConjugatedSingleBondInRing NonConjugatedSingleBond NonConjugatedSingleBondInRing NonConjugatedSingleBond ConjugatedSingleBondInRing ConjugatedDoubleBond NonConjugatedSingleBond ConjugatedDoubleBondInRing NonConjugatedSingleBond NonConjugatedSingleBondInRing NonConjugatedSingleBond NonConjugatedSingleBond NonConjugatedSingleBond NonConjugatedSingleBond NonConjugatedSingleBond ConjugatedSingleBondInRing NonConjugatedSingleBond ConjugatedSingleBondInRing NonConjugatedSingleBond NonConjugatedSingleBond NonConjugatedSingleBond NonConjugatedSingleBond ConjugatedDoubleBond ConjugatedSingleBond ConjugatedSingleBond ConjugatedSingleBond ConjugatedDoubleBond ConjugatedSingleBond ConjugatedSingleBond ConjugatedDoubleBond ConjugatedSingleBond NonConjugatedSingleBond NonConjugatedSingleBond NonConjugatedSingleBondInRing NonConjugatedSingleBondInRing NonConjugatedSingleBond NonConjugatedSingleBond NonConjugatedSingleBondInRing NonConjugatedSingleBond NonConjugatedSingleBond NonConjugatedSingleBond NonConjugatedSingleBondInRing NonConjugatedSingleBondInRing NonConjugatedSingleBond NonConjugatedSingleBond NonConjugatedSingleBond NonConjugatedSingleBond NonConjugatedSingleBond NonConjugatedSingleBondInRing NonConjugatedSingleBond NonConjugatedSingleBond NonConjugatedSingleBond NonConjugatedSingleBond NonConjugatedSingleBond
M  BCL CHI   1   S   5   S  10   S  12   R  29   S  33   R  37   S  39   R  43   R  47   R  49   S
M  BCL DBI - Z - - -
M  END
> <ConfClashScore>
0.000585977 

> <ConfOneFourInteractionScore>
-0.973995 

> <ConfScore>
-0.0236147 

> <ConfScorePBest>
0.0098455 

> <ConfTolerance>
1.68193 

$$$$
ChEBI.****
  PyMOL2.5          3D                             0

 58 60  0  0  0  0  0  0  0  0999 V2000
   18.3708   -8.5997    1.5223 C   0  0  0  1  0  0  0  0  0  0  0  0
   18.8335   -7.8594    0.9037 H   0  0  0  1  0  0  0  0  0  0  0  0
   16.9463   -8.2820    1.6850 N   0  0  0  1  0  0  0  0  0  0  0  0
   18.5136   -9.8584    0.9442 O   0  0  0  1  0  0  0  0  0  0  0  0
   19.0610   -8.6399    2.8996 C   0  0  0  1  0  0  0  0  0  0  0  0
   19.4768   -7.6871    3.1532 H   0  0  0  1  0  0  0  0  0  0  0  0
   16.4663   -7.0892    1.1843 C   0  0  0  1  0  0  0  0  0  0  0  0
   16.1412   -9.1734    2.3248 C   0  0  0  1  0  0  0  0  0  0  0  0
   16.5562  -10.0596    2.6771 H   0  0  0  1  0  0  0  0  0  0  0  0
   19.5554  -10.6108    1.6161 C   0  0  0  1  0  0  0  0  0  0  0  0
   19.1394  -11.4807    2.0799 H   0  0  0  1  0  0  0  0  0  0  0  0
   20.1612   -9.6861    2.6790 C   0  0  0  1  0  0  0  0  0  0  0  0
   21.0601   -9.2283    2.3221 H   0  0  0  1  0  0  0  0  0  0  0  0
   18.1527   -9.0512    3.9223 O   0  0  0  1  0  0  0  0  0  0  0  0
   18.3247   -9.9667    4.1545 H   0  0  0  1  0  0  0  0  0  0  0  0
   15.1130   -6.8751    1.4111 N   0  0  0  1  0  0  0  0  0  0  0  0
   14.7319   -6.0326    1.0866 H   0  0  0  1  0  0  0  0  0  0  0  0
   17.1718   -6.2893    0.5919 O   0  0  0  1  0  0  0  0  0  0  0  0
   14.8248   -8.9506    2.5192 C   0  0  0  1  0  0  0  0  0  0  0  0
   14.2285   -9.6511    3.0044 H   0  0  0  1  0  0  0  0  0  0  0  0
   20.6044  -11.0219    0.6360 C   0  0  0  1  0  0  0  0  0  0  0  0
   20.1498  -11.2799   -0.2976 H   0  0  0  1  0  0  0  0  0  0  0  0
   21.1465  -11.8635    1.0139 H   0  0  0  1  0  0  0  0  0  0  0  0
   20.4366  -10.4019    3.8840 O   0  0  0  1  0  0  0  0  0  0  0  0
   21.0278   -9.8847    4.4360 H   0  0  0  1  0  0  0  0  0  0  0  0
   14.2779   -7.7287    2.0405 C   0  0  0  1  0  0  0  0  0  0  0  0
   21.5000   -9.9000    0.4545 O   0  0  0  1  0  0  0  0  0  0  0  0
   13.0973   -7.4615    2.1928 O   0  0  0  1  0  0  0  0  0  0  0  0
   22.1603   -9.6704   -0.9866 P   0  0  0  1  0  0  0  0  0  0  0  0
   20.8889   -9.6464   -1.9584 O   0  0  0  1  0  0  0  0  0  0  0  0
   22.8104   -8.3290   -0.9945 O   0  0  0  0  0  0  0  0  0  0  0  0
   22.9443  -10.8925   -1.3086 O   0  0  0  1  0  0  0  0  0  0  0  0
   19.4070   -9.0082   -2.0881 P   0  0  0  1  0  0  0  0  0  0  0  0
   19.2521   -7.8607   -1.1659 O   0  0  0  0  0  0  0  0  0  0  0  0
   19.1053   -8.8144   -3.5255 O   0  0  0  1  0  0  0  0  0  0  0  0
   18.5588  -10.1820   -1.4052 O   0  0  0  1  0  0  0  0  0  0  0  0
   18.0318  -11.2925   -2.2057 C   0  0  0  1  0  0  0  0  0  0  0  0
   16.9916  -11.4243   -1.9924 H   0  0  0  1  0  0  0  0  0  0  0  0
   18.7886  -12.5753   -1.8552 C   0  0  0  1  0  0  0  0  0  0  0  0
   18.5976  -12.8298   -0.8336 H   0  0  0  1  0  0  0  0  0  0  0  0
   20.1888  -12.3614   -2.0395 O   0  0  0  1  0  0  0  0  0  0  0  0
   20.3922  -12.3618   -2.9776 H   0  0  0  1  0  0  0  0  0  0  0  0
   18.4215  -13.3279   -4.2220 C   0  0  0  1  0  0  0  0  0  0  0  0
   19.4486  -13.2167   -4.5005 H   0  0  0  1  0  0  0  0  0  0  0  0
   17.8206  -14.3525   -5.0152 O   0  0  0  1  0  0  0  0  0  0  0  0
   16.9277  -14.5171   -4.7033 H   0  0  0  1  0  0  0  0  0  0  0  0
   18.3353  -13.7132   -2.7467 C   0  0  0  1  0  0  0  0  0  0  0  0
   18.9602  -14.5638   -2.5713 H   0  0  0  1  0  0  0  0  0  0  0  0
   17.6879  -12.0104   -4.4562 C   0  0  0  1  0  0  0  0  0  0  0  0
   16.6458  -12.1476   -4.2559 H   0  0  0  1  0  0  0  0  0  0  0  0
   17.8740  -11.5863   -5.8983 C   0  0  0  1  0  0  0  0  0  0  0  0
   17.4176  -12.2940   -6.5585 H   0  0  0  1  0  0  0  0  0  0  0  0
   18.9146  -11.4997   -6.1317 H   0  0  0  1  0  0  0  0  0  0  0  0
   17.2259  -10.3068   -6.0064 O   0  0  0  1  0  0  0  0  0  0  0  0
   16.2755  -10.4220   -5.9351 H   0  0  0  1  0  0  0  0  0  0  0  0
   18.1986  -10.9957   -3.6009 O   0  0  0  1  0  0  0  0  0  0  0  0
   16.9808  -14.0425   -2.4295 O   0  0  0  1  0  0  0  0  0  0  0  0
   16.8412  -14.9836   -2.5583 H   0  0  0  1  0  0  0  0  0  0  0  0
  1  2  1  0  0  0  0
  1  3  1  0  0  0  0
  1  4  1  0  0  0  0
  1  5  1  0  0  0  0
  3  7  1  0  0  0  0
  3  8  1  0  0  0  0
  4 10  1  0  0  0  0
  5  6  1  0  0  0  0
  5 12  1  0  0  0  0
  5 14  1  0  0  0  0
  7 16  1  0  0  0  0
  7 18  2  0  0  0  0
  8  9  1  0  0  0  0
  8 19  2  0  0  0  0
 10 11  1  0  0  0  0
 10 12  1  0  0  0  0
 10 21  1  0  0  0  0
 12 13  1  0  0  0  0
 12 24  1  0  0  0  0
 14 15  1  0  0  0  0
 16 17  1  0  0  0  0
 16 26  1  0  0  0  0
 19 20  1  0  0  0  0
 19 26  1  0  0  0  0
 21 22  1  0  0  0  0
 21 23  1  0  0  0  0
 21 27  1  0  0  0  0
 24 25  1  0  0  0  0
 26 28  2  0  0  0  0
 27 29  1  0  0  0  0
 29 30  1  0  0  0  0
 29 31  1  0  0  0  0
 29 32  2  0  0  0  0
 30 33  1  0  0  0  0
 33 34  1  0  0  0  0
 33 35  2  0  0  0  0
 33 36  1  0  0  0  0
 36 37  1  0  0  0  0
 37 38  1  0  0  0  0
 37 39  1  0  0  0  0
 37 56  1  0  0  0  0
 39 40  1  0  0  0  0
 39 41  1  0  0  0  0
 39 47  1  0  0  0  0
 41 42  1  0  0  0  0
 43 44  1  0  0  0  0
 43 45  1  0  0  0  0
 43 47  1  0  0  0  0
 43 49  1  0  0  0  0
 45 46  1  0  0  0  0
 47 48  1  0  0  0  0
 47 57  1  0  0  0  0
 49 50  1  0  0  0  0
 49 51  1  0  0  0  0
 49 56  1  0  0  0  0
 51 52  1  0  0  0  0
 51 53  1  0  0  0  0
 51 54  1  0  0  0  0
 54 55  1  0  0  0  0
 57 58  1  0  0  0  0
M  BCL ATM C_TeTeTeTe H_S N_TrTrTrPi2 O_Te2Te2TeTe C_TeTeTeTe H_S C_TrTrTrPi C_TrTrTrPi H_S C_TeTeTeTe H_S C_TeTeTeTe H_S O_Te2Te2TeTe H_S N_TrTrTrPi2 H_S O_Tr2Tr2TrPi C_TrTrTrPi H_S C_TeTeTeTe H_S H_S O_Te2Te2TeTe H_S C_TrTrTrPi O_Tr2TrTrPi2 O_Tr2Tr2TrPi P_TeTeTeTePi O_Tr2TrTrPi2 O_Te2Te2TeTe O_Tr2Tr2TrPi P_TeTeTeTePi O_Te2Te2TeTe O_Tr2Tr2TrPi O_Tr2TrTrPi2 C_TeTeTeTe H_S C_TeTeTeTe H_S O_Te2Te2TeTe H_S C_TeTeTeTe H_S O_Te2Te2TeTe H_S C_TeTeTeTe H_S C_TeTeTeTe H_S C_TeTeTeTe H_S H_S O_Te2Te2TeTe H_S O_Te2Te2TeTe O_Te2Te2TeTe H_S
M  BCL BND NonConjugatedSingleBond NonConjugatedSingleBond NonConjugatedSingleBondInRing NonConjugatedSingleBondInRing ConjugatedSingleBondInRing ConjugatedSingleBondInRing NonConjugatedSingleBondInRing NonConjugatedSingleBond NonConjugatedSingleBondInRing NonConjugatedSingleBond ConjugatedSingleBondInRing ConjugatedDoubleBond NonConjugatedSingleBond ConjugatedDoubleBondInRing NonConjugatedSingleBond NonConjugatedSingleBondInRing NonConjugatedSingleBond NonConjugatedSingleBond NonConjugatedSingleBond NonConjugatedSingleBond NonConjugatedSingleBond ConjugatedSingleBondInRing NonConjugatedSingleBond ConjugatedSingleBondInRing NonConjugatedSingleBond NonConjugatedSingleBond NonConjugatedSingleBond NonConjugatedSingleBond ConjugatedDoubleBond ConjugatedSingleBond ConjugatedSingleBond ConjugatedSingleBond ConjugatedDoubleBond ConjugatedSingleBond ConjugatedSingleBond ConjugatedDoubleBond ConjugatedSingleBond NonConjugatedSingleBond NonConjugatedSingleBond NonConjugatedSingleBondInRing NonConjugatedSingleBondInRing NonConjugatedSingleBond NonConjugatedSingleBond NonConjugatedSingleBondInRing NonConjugatedSingleBond NonConjugatedSingleBond NonConjugatedSingleBond NonConjugatedSingleBondInRing NonConjugatedSingleBondInRing NonConjugatedSingleBond NonConjugatedSingleBond NonConjugatedSingleBond NonConjugatedSingleBond NonConjugatedSingleBond NonConjugatedSingleBondInRing NonConjugatedSingleBond NonConjugatedSingleBond NonConjugatedSingleBond NonConjugatedSingleBond NonConjugatedSingleBond
M  BCL CHI   1   S   5   S  10   S  12   R  29   S  33   R  37   S  39   R  43   R  47   R  49   S
M  BCL DBI - Z - - -
M  END
> <ConfClashScore>
0 

> <ConfOneFourInteractionScore>
-0.962385 

> <ConfScore>
-0.0219043 

> <ConfScorePBest>
0.0097425 

> <ConfTolerance>
1.78728 

$$$$
ChEBI.****
  PyMOL2.5          3D                             0

 58 60  0  0  0  0  0  0  0  0999 V2000
   14.9496   -5.2686    4.3706 C   0  0  0  1  0  0  0  0  0  0  0  0
   15.1833   -4.2315    4.4919 H   0  0  0  1  0  0  0  0  0  0  0  0
   13.5020   -5.4655    4.5192 N   0  0  0  1  0  0  0  0  0  0  0  0
   15.3608   -5.7034    3.1052 O   0  0  0  1  0  0  0  0  0  0  0  0
   15.6999   -6.0991    5.4239 C   0  0  0  1  0  0  0  0  0  0  0  0
   16.0767   -5.4769    6.2087 H   0  0  0  1  0  0  0  0  0  0  0  0
   12.9443   -5.3978    5.7796 C   0  0  0  1  0  0  0  0  0  0  0  0
   12.7526   -5.7090    3.4095 C   0  0  0  1  0  0  0  0  0  0  0  0
   13.2256   -5.7437    2.4839 H   0  0  0  1  0  0  0  0  0  0  0  0
   16.2649   -6.8439    3.2220 C   0  0  0  1  0  0  0  0  0  0  0  0
   15.7296   -7.7643    3.1156 H   0  0  0  1  0  0  0  0  0  0  0  0
   16.8449   -6.7197    4.6123 C   0  0  0  1  0  0  0  0  0  0  0  0
   17.7036   -6.0814    4.6127 H   0  0  0  1  0  0  0  0  0  0  0  0
   14.8560   -7.1095    5.9797 O   0  0  0  1  0  0  0  0  0  0  0  0
   14.2903   -7.4685    5.2921 H   0  0  0  1  0  0  0  0  0  0  0  0
   11.5741   -5.6213    5.8132 N   0  0  0  1  0  0  0  0  0  0  0  0
   11.1376   -5.5987    6.6903 H   0  0  0  1  0  0  0  0  0  0  0  0
   13.6002   -5.1615    6.7807 O   0  0  0  1  0  0  0  0  0  0  0  0
   11.4192   -5.9071    3.4651 C   0  0  0  1  0  0  0  0  0  0  0  0
   10.8671   -6.0837    2.6017 H   0  0  0  1  0  0  0  0  0  0  0  0
   17.3428   -6.7721    2.1910 C   0  0  0  1  0  0  0  0  0  0  0  0
   17.9060   -5.8708    2.3148 H   0  0  0  1  0  0  0  0  0  0  0  0
   16.9123   -6.7925    1.2116 H   0  0  0  1  0  0  0  0  0  0  0  0
   17.2029   -8.0010    5.1322 O   0  0  0  1  0  0  0  0  0  0  0  0
   18.1417   -8.1502    4.9981 H   0  0  0  1  0  0  0  0  0  0  0  0
   10.7922   -5.8670    4.7405 C   0  0  0  1  0  0  0  0  0  0  0  0
   18.2038   -7.9204    2.3748 O   0  0  0  1  0  0  0  0  0  0  0  0
    9.5917   -6.0480    4.8611 O   0  0  0  1  0  0  0  0  0  0  0  0
   19.7019   -8.0067    1.7752 P   0  0  0  1  0  0  0  0  0  0  0  0
   19.5405   -8.9844    0.5106 O   0  0  0  1  0  0  0  0  0  0  0  0
   20.1067   -6.6766    1.2562 O   0  0  0  0  0  0  0  0  0  0  0  0
   20.5230   -8.6451    2.8281 O   0  0  0  1  0  0  0  0  0  0  0  0
   18.3211   -9.7679   -0.0665 P   0  0  0  1  0  0  0  0  0  0  0  0
   17.9957  -10.9338    0.8534 O   0  0  0  0  0  0  0  0  0  0  0  0
   17.2108   -8.8059   -0.3401 O   0  0  0  1  0  0  0  0  0  0  0  0
   18.8851  -10.3840   -1.3960 O   0  0  0  1  0  0  0  0  0  0  0  0
   18.1947  -11.4052   -2.1484 C   0  0  0  1  0  0  0  0  0  0  0  0
   17.1730  -11.4512   -1.8339 H   0  0  0  1  0  0  0  0  0  0  0  0
   18.8639  -12.7586   -1.9005 C   0  0  0  1  0  0  0  0  0  0  0  0
   18.7526  -13.0239   -0.8699 H   0  0  0  1  0  0  0  0  0  0  0  0
   20.2526  -12.6632   -2.2210 O   0  0  0  1  0  0  0  0  0  0  0  0
   20.5494  -11.7592   -2.0938 H   0  0  0  1  0  0  0  0  0  0  0  0
   18.1986  -13.4097   -4.2321 C   0  0  0  1  0  0  0  0  0  0  0  0
   19.1991  -13.3812   -4.6106 H   0  0  0  1  0  0  0  0  0  0  0  0
   17.4326  -14.3552   -4.9801 O   0  0  0  1  0  0  0  0  0  0  0  0
   18.0198  -14.8829   -5.5263 H   0  0  0  1  0  0  0  0  0  0  0  0
   18.2243  -13.8271   -2.7633 C   0  0  0  1  0  0  0  0  0  0  0  0
   18.7844  -14.7338   -2.6681 H   0  0  0  1  0  0  0  0  0  0  0  0
   17.5670  -12.0270   -4.3660 C   0  0  0  1  0  0  0  0  0  0  0  0
   16.5417  -12.0779   -4.0643 H   0  0  0  1  0  0  0  0  0  0  0  0
   17.6465  -11.5846   -5.7988 C   0  0  0  1  0  0  0  0  0  0  0  0
   16.9962  -12.1903   -6.3946 H   0  0  0  1  0  0  0  0  0  0  0  0
   18.6524  -11.6899   -6.1482 H   0  0  0  1  0  0  0  0  0  0  0  0
   17.2505  -10.2233   -5.9021 O   0  0  0  1  0  0  0  0  0  0  0  0
   16.8104   -9.9552   -5.0921 H   0  0  0  1  0  0  0  0  0  0  0  0
   18.2489  -11.0853   -3.5475 O   0  0  0  1  0  0  0  0  0  0  0  0
   16.8849  -14.0451   -2.3178 O   0  0  0  1  0  0  0  0  0  0  0  0
   16.2722  -13.6293   -2.9289 H   0  0  0  1  0  0  0  0  0  0  0  0
  1  2  1  0  0  0  0
  1  3  1  0  0  0  0
  1  4  1  0  0  0  0
  1  5  1  0  0  0  0
  3  7  1  0  0  0  0
  3  8  1  0  0  0  0
  4 10  1  0  0  0  0
  5  6  1  0  0  0  0
  5 12  1  0  0  0  0
  5 14  1  0  0  0  0
  7 16  1  0  0  0  0
  7 18  2  0  0  0  0
  8  9  1  0  0  0  0
  8 19  2  0  0  0  0
 10 11  1  0  0  0  0
 10 12  1  0  0  0  0
 10 21  1  0  0  0  0
 12 13  1  0  0  0  0
 12 24  1  0  0  0  0
 14 15  1  0  0  0  0
 16 17  1  0  0  0  0
 16 26  1  0  0  0  0
 19 20  1  0  0  0  0
 19 26  1  0  0  0  0
 21 22  1  0  0  0  0
 21 23  1  0  0  0  0
 21 27  1  0  0  0  0
 24 25  1  0  0  0  0
 26 28  2  0  0  0  0
 27 29  1  0  0  0  0
 29 30  1  0  0  0  0
 29 31  1  0  0  0  0
 29 32  2  0  0  0  0
 30 33  1  0  0  0  0
 33 34  1  0  0  0  0
 33 35  2  0  0  0  0
 33 36  1  0  0  0  0
 36 37  1  0  0  0  0
 37 38  1  0  0  0  0
 37 39  1  0  0  0  0
 37 56  1  0  0  0  0
 39 40  1  0  0  0  0
 39 41  1  0  0  0  0
 39 47  1  0  0  0  0
 41 42  1  0  0  0  0
 43 44  1  0  0  0  0
 43 45  1  0  0  0  0
 43 47  1  0  0  0  0
 43 49  1  0  0  0  0
 45 46  1  0  0  0  0
 47 48  1  0  0  0  0
 47 57  1  0  0  0  0
 49 50  1  0  0  0  0
 49 51  1  0  0  0  0
 49 56  1  0  0  0  0
 51 52  1  0  0  0  0
 51 53  1  0  0  0  0
 51 54  1  0  0  0  0
 54 55  1  0  0  0  0
 57 58  1  0  0  0  0
M  BCL ATM C_TeTeTeTe H_S N_TrTrTrPi2 O_Te2Te2TeTe C_TeTeTeTe H_S C_TrTrTrPi C_TrTrTrPi H_S C_TeTeTeTe H_S C_TeTeTeTe H_S O_Te2Te2TeTe H_S N_TrTrTrPi2 H_S O_Tr2Tr2TrPi C_TrTrTrPi H_S C_TeTeTeTe H_S H_S O_Te2Te2TeTe H_S C_TrTrTrPi O_Tr2TrTrPi2 O_Tr2Tr2TrPi P_TeTeTeTePi O_Tr2TrTrPi2 O_Te2Te2TeTe O_Tr2Tr2TrPi P_TeTeTeTePi O_Te2Te2TeTe O_Tr2Tr2TrPi O_Tr2TrTrPi2 C_TeTeTeTe H_S C_TeTeTeTe H_S O_Te2Te2TeTe H_S C_TeTeTeTe H_S O_Te2Te2TeTe H_S C_TeTeTeTe H_S C_TeTeTeTe H_S C_TeTeTeTe H_S H_S O_Te2Te2TeTe H_S O_Te2Te2TeTe O_Te2Te2TeTe H_S
M  BCL BND NonConjugatedSingleBond NonConjugatedSingleBond NonConjugatedSingleBondInRing NonConjugatedSingleBondInRing ConjugatedSingleBondInRing ConjugatedSingleBondInRing NonConjugatedSingleBondInRing NonConjugatedSingleBond NonConjugatedSingleBondInRing NonConjugatedSingleBond ConjugatedSingleBondInRing ConjugatedDoubleBond NonConjugatedSingleBond ConjugatedDoubleBondInRing NonConjugatedSingleBond NonConjugatedSingleBondInRing NonConjugatedSingleBond NonConjugatedSingleBond NonConjugatedSingleBond NonConjugatedSingleBond NonConjugatedSingleBond ConjugatedSingleBondInRing NonConjugatedSingleBond ConjugatedSingleBondInRing NonConjugatedSingleBond NonConjugatedSingleBond NonConjugatedSingleBond NonConjugatedSingleBond ConjugatedDoubleBond ConjugatedSingleBond ConjugatedSingleBond ConjugatedSingleBond ConjugatedDoubleBond ConjugatedSingleBond ConjugatedSingleBond ConjugatedDoubleBond ConjugatedSingleBond NonConjugatedSingleBond NonConjugatedSingleBond NonConjugatedSingleBondInRing NonConjugatedSingleBondInRing NonConjugatedSingleBond NonConjugatedSingleBond NonConjugatedSingleBondInRing NonConjugatedSingleBond NonConjugatedSingleBond NonConjugatedSingleBond NonConjugatedSingleBondInRing NonConjugatedSingleBondInRing NonConjugatedSingleBond NonConjugatedSingleBond NonConjugatedSingleBond NonConjugatedSingleBond NonConjugatedSingleBond NonConjugatedSingleBondInRing NonConjugatedSingleBond NonConjugatedSingleBond NonConjugatedSingleBond NonConjugatedSingleBond NonConjugatedSingleBond
M  BCL CHI   1   S   5   S  10   S  12   R  29   S  33   R  37   S  39   R  43   R  47   R  49   S
M  BCL DBI - Z - - -
M  END
> <ConfClashScore>
0 

> <ConfOneFourInteractionScore>
-0.988002 

> <ConfScore>
-0.0209118 

> <ConfScorePBest>
0.0096395 

> <ConfTolerance>
1.74035 

$$$$
ChEBI.****
  PyMOL2.5          3D                             0

 58 60  0  0  0  0  0  0  0  0999 V2000
   18.4457   -6.1435    4.8651 C   0  0  0  1  0  0  0  0  0  0  0  0
   18.1656   -7.1343    5.1563 H   0  0  0  1  0  0  0  0  0  0  0  0
   19.0397   -5.4450    6.0122 N   0  0  0  1  0  0  0  0  0  0  0  0
   19.3571   -6.1853    3.7874 O   0  0  0  1  0  0  0  0  0  0  0  0
   17.2390   -5.3820    4.3475 C   0  0  0  1  0  0  0  0  0  0  0  0
   16.5587   -6.0333    3.8398 H   0  0  0  1  0  0  0  0  0  0  0  0
   18.3780   -5.4402    7.2210 C   0  0  0  1  0  0  0  0  0  0  0  0
   20.2474   -4.8056    5.8644 C   0  0  0  1  0  0  0  0  0  0  0  0
   20.7139   -4.8332    4.9353 H   0  0  0  1  0  0  0  0  0  0  0  0
   18.9609   -5.2453    2.7518 C   0  0  0  1  0  0  0  0  0  0  0  0
   19.7893   -4.6336    2.4612 H   0  0  0  1  0  0  0  0  0  0  0  0
   17.8645   -4.3965    3.3942 C   0  0  0  1  0  0  0  0  0  0  0  0
   17.1583   -4.0551    2.6665 H   0  0  0  1  0  0  0  0  0  0  0  0
   16.5562   -4.7125    5.4085 O   0  0  0  1  0  0  0  0  0  0  0  0
   16.0724   -5.3543    5.9335 H   0  0  0  1  0  0  0  0  0  0  0  0
   19.0028   -4.7642    8.2408 N   0  0  0  1  0  0  0  0  0  0  0  0
   18.5468   -4.7501    9.1081 H   0  0  0  1  0  0  0  0  0  0  0  0
   17.3054   -6.0007    7.3757 O   0  0  0  1  0  0  0  0  0  0  0  0
   20.8586   -4.1394    6.8776 C   0  0  0  1  0  0  0  0  0  0  0  0
   21.7730   -3.6665    6.7300 H   0  0  0  1  0  0  0  0  0  0  0  0
   18.4305   -5.9737    1.5516 C   0  0  0  1  0  0  0  0  0  0  0  0
   17.8950   -5.3086    0.9067 H   0  0  0  1  0  0  0  0  0  0  0  0
   17.7901   -6.7789    1.8454 H   0  0  0  1  0  0  0  0  0  0  0  0
   18.4130   -3.2755    4.0889 O   0  0  0  1  0  0  0  0  0  0  0  0
   19.1628   -2.9303    3.5988 H   0  0  0  1  0  0  0  0  0  0  0  0
   20.2088   -4.1046    8.1603 C   0  0  0  1  0  0  0  0  0  0  0  0
   19.6306   -6.4754    0.8997 O   0  0  0  1  0  0  0  0  0  0  0  0
   20.6960   -3.5264    9.1178 O   0  0  0  1  0  0  0  0  0  0  0  0
   19.5523   -7.6589   -0.1323 P   0  0  0  1  0  0  0  0  0  0  0  0
   19.2456   -9.0051    0.7108 O   0  0  0  1  0  0  0  0  0  0  0  0
   18.3715   -7.4581   -1.0282 O   0  0  0  0  0  0  0  0  0  0  0  0
   20.8590   -7.7224   -0.8127 O   0  0  0  1  0  0  0  0  0  0  0  0
   18.3073  -10.1404    0.1601 P   0  0  0  1  0  0  0  0  0  0  0  0
   18.6075  -11.3565    1.0414 O   0  0  0  0  0  0  0  0  0  0  0  0
   16.8789   -9.7470    0.1592 O   0  0  0  1  0  0  0  0  0  0  0  0
   18.7113  -10.4460   -1.3115 O   0  0  0  1  0  0  0  0  0  0  0  0
   18.1258  -11.4676   -2.1403 C   0  0  0  1  0  0  0  0  0  0  0  0
   17.1001  -11.6040   -1.8681 H   0  0  0  1  0  0  0  0  0  0  0  0
   18.8838  -12.7813   -1.9388 C   0  0  0  1  0  0  0  0  0  0  0  0
   18.7569  -13.1106   -0.9287 H   0  0  0  1  0  0  0  0  0  0  0  0
   20.2719  -12.5692   -2.2003 O   0  0  0  1  0  0  0  0  0  0  0  0
   20.5053  -11.6648   -1.9782 H   0  0  0  1  0  0  0  0  0  0  0  0
   18.3489  -13.3479   -4.3254 C   0  0  0  1  0  0  0  0  0  0  0  0
   19.3569  -13.2270   -4.6632 H   0  0  0  1  0  0  0  0  0  0  0  0
   17.6806  -14.3027   -5.1511 O   0  0  0  1  0  0  0  0  0  0  0  0
   17.0621  -14.8091   -4.6194 H   0  0  0  1  0  0  0  0  0  0  0  0
   18.3545  -13.8432   -2.8808 C   0  0  0  1  0  0  0  0  0  0  0  0
   18.9762  -14.7115   -2.8122 H   0  0  0  1  0  0  0  0  0  0  0  0
   17.6223  -12.0086   -4.4101 C   0  0  0  1  0  0  0  0  0  0  0  0
   16.5937  -12.1494   -4.1510 H   0  0  0  1  0  0  0  0  0  0  0  0
   17.7183  -11.4828   -5.8134 C   0  0  0  1  0  0  0  0  0  0  0  0
   17.1910  -10.5543   -5.8821 H   0  0  0  1  0  0  0  0  0  0  0  0
   17.2849  -12.1905   -6.4888 H   0  0  0  1  0  0  0  0  0  0  0  0
   19.0827  -11.2777   -6.1554 O   0  0  0  1  0  0  0  0  0  0  0  0
   19.1429  -10.6221   -6.8541 H   0  0  0  1  0  0  0  0  0  0  0  0
   18.2045  -11.0674   -3.5174 O   0  0  0  1  0  0  0  0  0  0  0  0
   17.0202  -14.1809   -2.4991 O   0  0  0  1  0  0  0  0  0  0  0  0
   16.3981  -13.7101   -3.0585 H   0  0  0  1  0  0  0  0  0  0  0  0
  1  2  1  0  0  0  0
  1  3  1  0  0  0  0
  1  4  1  0  0  0  0
  1  5  1  0  0  0  0
  3  7  1  0  0  0  0
  3  8  1  0  0  0  0
  4 10  1  0  0  0  0
  5  6  1  0  0  0  0
  5 12  1  0  0  0  0
  5 14  1  0  0  0  0
  7 16  1  0  0  0  0
  7 18  2  0  0  0  0
  8  9  1  0  0  0  0
  8 19  2  0  0  0  0
 10 11  1  0  0  0  0
 10 12  1  0  0  0  0
 10 21  1  0  0  0  0
 12 13  1  0  0  0  0
 12 24  1  0  0  0  0
 14 15  1  0  0  0  0
 16 17  1  0  0  0  0
 16 26  1  0  0  0  0
 19 20  1  0  0  0  0
 19 26  1  0  0  0  0
 21 22  1  0  0  0  0
 21 23  1  0  0  0  0
 21 27  1  0  0  0  0
 24 25  1  0  0  0  0
 26 28  2  0  0  0  0
 27 29  1  0  0  0  0
 29 30  1  0  0  0  0
 29 31  1  0  0  0  0
 29 32  2  0  0  0  0
 30 33  1  0  0  0  0
 33 34  1  0  0  0  0
 33 35  2  0  0  0  0
 33 36  1  0  0  0  0
 36 37  1  0  0  0  0
 37 38  1  0  0  0  0
 37 39  1  0  0  0  0
 37 56  1  0  0  0  0
 39 40  1  0  0  0  0
 39 41  1  0  0  0  0
 39 47  1  0  0  0  0
 41 42  1  0  0  0  0
 43 44  1  0  0  0  0
 43 45  1  0  0  0  0
 43 47  1  0  0  0  0
 43 49  1  0  0  0  0
 45 46  1  0  0  0  0
 47 48  1  0  0  0  0
 47 57  1  0  0  0  0
 49 50  1  0  0  0  0
 49 51  1  0  0  0  0
 49 56  1  0  0  0  0
 51 52  1  0  0  0  0
 51 53  1  0  0  0  0
 51 54  1  0  0  0  0
 54 55  1  0  0  0  0
 57 58  1  0  0  0  0
M  BCL ATM C_TeTeTeTe H_S N_TrTrTrPi2 O_Te2Te2TeTe C_TeTeTeTe H_S C_TrTrTrPi C_TrTrTrPi H_S C_TeTeTeTe H_S C_TeTeTeTe H_S O_Te2Te2TeTe H_S N_TrTrTrPi2 H_S O_Tr2Tr2TrPi C_TrTrTrPi H_S C_TeTeTeTe H_S H_S O_Te2Te2TeTe H_S C_TrTrTrPi O_Tr2TrTrPi2 O_Tr2Tr2TrPi P_TeTeTeTePi O_Tr2TrTrPi2 O_Te2Te2TeTe O_Tr2Tr2TrPi P_TeTeTeTePi O_Te2Te2TeTe O_Tr2Tr2TrPi O_Tr2TrTrPi2 C_TeTeTeTe H_S C_TeTeTeTe H_S O_Te2Te2TeTe H_S C_TeTeTeTe H_S O_Te2Te2TeTe H_S C_TeTeTeTe H_S C_TeTeTeTe H_S C_TeTeTeTe H_S H_S O_Te2Te2TeTe H_S O_Te2Te2TeTe O_Te2Te2TeTe H_S
M  BCL BND NonConjugatedSingleBond NonConjugatedSingleBond NonConjugatedSingleBondInRing NonConjugatedSingleBondInRing ConjugatedSingleBondInRing ConjugatedSingleBondInRing NonConjugatedSingleBondInRing NonConjugatedSingleBond NonConjugatedSingleBondInRing NonConjugatedSingleBond ConjugatedSingleBondInRing ConjugatedDoubleBond NonConjugatedSingleBond ConjugatedDoubleBondInRing NonConjugatedSingleBond NonConjugatedSingleBondInRing NonConjugatedSingleBond NonConjugatedSingleBond NonConjugatedSingleBond NonConjugatedSingleBond NonConjugatedSingleBond ConjugatedSingleBondInRing NonConjugatedSingleBond ConjugatedSingleBondInRing NonConjugatedSingleBond NonConjugatedSingleBond NonConjugatedSingleBond NonConjugatedSingleBond ConjugatedDoubleBond ConjugatedSingleBond ConjugatedSingleBond ConjugatedSingleBond ConjugatedDoubleBond ConjugatedSingleBond ConjugatedSingleBond ConjugatedDoubleBond ConjugatedSingleBond NonConjugatedSingleBond NonConjugatedSingleBond NonConjugatedSingleBondInRing NonConjugatedSingleBondInRing NonConjugatedSingleBond NonConjugatedSingleBond NonConjugatedSingleBondInRing NonConjugatedSingleBond NonConjugatedSingleBond NonConjugatedSingleBond NonConjugatedSingleBondInRing NonConjugatedSingleBondInRing NonConjugatedSingleBond NonConjugatedSingleBond NonConjugatedSingleBond NonConjugatedSingleBond NonConjugatedSingleBond NonConjugatedSingleBondInRing NonConjugatedSingleBond NonConjugatedSingleBond NonConjugatedSingleBond NonConjugatedSingleBond NonConjugatedSingleBond
M  BCL CHI   1   S   5   S  10   S  12   R  29   S  33   R  37   S  39   R  43   R  47   R  49   S
M  BCL DBI - Z - - -
M  END
> <ConfClashScore>
0 

> <ConfOneFourInteractionScore>
-0.974521 

> <ConfScore>
-0.0185873 

> <ConfScorePBest>
0.0095365 

> <ConfTolerance>
1.68889 

$$$$
ChEBI.****
  PyMOL2.5          3D                             0

 58 60  0  0  0  0  0  0  0  0999 V2000
   19.1694   -8.4139    6.0369 C   0  0  0  1  0  0  0  0  0  0  0  0
   19.0543   -7.3606    6.1864 H   0  0  0  1  0  0  0  0  0  0  0  0
   18.2232   -9.1371    6.8961 N   0  0  0  1  0  0  0  0  0  0  0  0
   18.9514   -8.7493    4.6618 O   0  0  0  1  0  0  0  0  0  0  0  0
   20.6051   -8.8423    6.3466 C   0  0  0  1  0  0  0  0  0  0  0  0
   21.3025   -8.0578    6.1390 H   0  0  0  1  0  0  0  0  0  0  0  0
   17.3173  -10.0045    6.3147 C   0  0  0  1  0  0  0  0  0  0  0  0
   18.2655   -8.9264    8.2898 C   0  0  0  1  0  0  0  0  0  0  0  0
   18.9623   -8.2646    8.6875 H   0  0  0  1  0  0  0  0  0  0  0  0
   19.9702   -9.6592    4.2080 C   0  0  0  1  0  0  0  0  0  0  0  0
   19.5222  -10.5377    3.7927 H   0  0  0  1  0  0  0  0  0  0  0  0
   20.7738  -10.0089    5.3844 C   0  0  0  1  0  0  0  0  0  0  0  0
   21.8025  -10.1260    5.1142 H   0  0  0  1  0  0  0  0  0  0  0  0
   20.7465   -9.2587    7.7056 O   0  0  0  1  0  0  0  0  0  0  0  0
   21.3605   -9.9951    7.7528 H   0  0  0  1  0  0  0  0  0  0  0  0
   16.4580  -10.6250    7.1732 N   0  0  0  1  0  0  0  0  0  0  0  0
   15.8068  -11.2405    6.7763 H   0  0  0  1  0  0  0  0  0  0  0  0
   17.2882  -10.2022    5.1112 O   0  0  0  1  0  0  0  0  0  0  0  0
   17.4114   -9.5741    9.1176 C   0  0  0  1  0  0  0  0  0  0  0  0
   17.4680   -9.4312   10.1462 H   0  0  0  1  0  0  0  0  0  0  0  0
   20.8306   -8.9978    3.1713 C   0  0  0  1  0  0  0  0  0  0  0  0
   21.5643   -9.6784    2.7927 H   0  0  0  1  0  0  0  0  0  0  0  0
   21.3182   -8.1344    3.5736 H   0  0  0  1  0  0  0  0  0  0  0  0
   20.2971  -11.2141    5.9736 O   0  0  0  1  0  0  0  0  0  0  0  0
   19.5142  -11.0272    6.4968 H   0  0  0  1  0  0  0  0  0  0  0  0
   16.4125  -10.4727    8.5543 C   0  0  0  1  0  0  0  0  0  0  0  0
   19.8894   -8.6249    2.1374 O   0  0  0  1  0  0  0  0  0  0  0  0
   15.5923  -11.0519    9.2471 O   0  0  0  1  0  0  0  0  0  0  0  0
   20.4106   -8.2260    0.6215 P   0  0  0  1  0  0  0  0  0  0  0  0
   19.1051   -8.0640   -0.3201 O   0  0  0  1  0  0  0  0  0  0  0  0
   21.0958   -6.8934    0.8797 O   0  0  0  0  0  0  0  0  0  0  0  0
   21.3535   -9.3163    0.2021 O   0  0  0  1  0  0  0  0  0  0  0  0
   18.0364   -9.2199   -0.4823 P   0  0  0  1  0  0  0  0  0  0  0  0
   17.9079  -10.0105    0.7661 O   0  0  0  0  0  0  0  0  0  0  0  0
   16.8359   -8.6054   -1.0505 O   0  0  0  1  0  0  0  0  0  0  0  0
   18.7161  -10.1138   -1.5741 O   0  0  0  1  0  0  0  0  0  0  0  0
   18.1031  -11.1828   -2.2432 C   0  0  0  1  0  0  0  0  0  0  0  0
   17.0710  -11.2333   -1.9656 H   0  0  0  1  0  0  0  0  0  0  0  0
   18.7977  -12.4899   -1.8558 C   0  0  0  1  0  0  0  0  0  0  0  0
   18.6515  -12.6712   -0.8115 H   0  0  0  1  0  0  0  0  0  0  0  0
   20.1917  -12.3800   -2.1287 O   0  0  0  1  0  0  0  0  0  0  0  0
   20.4271  -12.9796   -2.8405 H   0  0  0  1  0  0  0  0  0  0  0  0
   18.2462  -13.3537   -4.1477 C   0  0  0  1  0  0  0  0  0  0  0  0
   19.2602  -13.3267   -4.4884 H   0  0  0  1  0  0  0  0  0  0  0  0
   17.5371  -14.3811   -4.8418 O   0  0  0  1  0  0  0  0  0  0  0  0
   18.1384  -14.8448   -5.4292 H   0  0  0  1  0  0  0  0  0  0  0  0
   18.2229  -13.6457   -2.6489 C   0  0  0  1  0  0  0  0  0  0  0  0
   18.8028  -14.5239   -2.4556 H   0  0  0  1  0  0  0  0  0  0  0  0
   17.5837  -12.0067   -4.4226 C   0  0  0  1  0  0  0  0  0  0  0  0
   16.5486  -12.0632   -4.1574 H   0  0  0  1  0  0  0  0  0  0  0  0
   17.7099  -11.6835   -5.8839 C   0  0  0  1  0  0  0  0  0  0  0  0
   18.7104  -11.8703   -6.2142 H   0  0  0  1  0  0  0  0  0  0  0  0
   17.4638  -10.6560   -6.0533 H   0  0  0  1  0  0  0  0  0  0  0  0
   16.8024  -12.5220   -6.5866 O   0  0  0  1  0  0  0  0  0  0  0  0
   16.0605  -12.7393   -6.0174 H   0  0  0  1  0  0  0  0  0  0  0  0
   18.2060  -10.9796   -3.6612 O   0  0  0  1  0  0  0  0  0  0  0  0
   16.8712  -13.8662   -2.2380 O   0  0  0  1  0  0  0  0  0  0  0  0
   16.6064  -14.7586   -2.4730 H   0  0  0  1  0  0  0  0  0  0  0  0
  1  2  1  0  0  0  0
  1  3  1  0  0  0  0
  1  4  1  0  0  0  0
  1  5  1  0  0  0  0
  3  7  1  0  0  0  0
  3  8  1  0  0  0  0
  4 10  1  0  0  0  0
  5  6  1  0  0  0  0
  5 12  1  0  0  0  0
  5 14  1  0  0  0  0
  7 16  1  0  0  0  0
  7 18  2  0  0  0  0
  8  9  1  0  0  0  0
  8 19  2  0  0  0  0
 10 11  1  0  0  0  0
 10 12  1  0  0  0  0
 10 21  1  0  0  0  0
 12 13  1  0  0  0  0
 12 24  1  0  0  0  0
 14 15  1  0  0  0  0
 16 17  1  0  0  0  0
 16 26  1  0  0  0  0
 19 20  1  0  0  0  0
 19 26  1  0  0  0  0
 21 22  1  0  0  0  0
 21 23  1  0  0  0  0
 21 27  1  0  0  0  0
 24 25  1  0  0  0  0
 26 28  2  0  0  0  0
 27 29  1  0  0  0  0
 29 30  1  0  0  0  0
 29 31  1  0  0  0  0
 29 32  2  0  0  0  0
 30 33  1  0  0  0  0
 33 34  1  0  0  0  0
 33 35  2  0  0  0  0
 33 36  1  0  0  0  0
 36 37  1  0  0  0  0
 37 38  1  0  0  0  0
 37 39  1  0  0  0  0
 37 56  1  0  0  0  0
 39 40  1  0  0  0  0
 39 41  1  0  0  0  0
 39 47  1  0  0  0  0
 41 42  1  0  0  0  0
 43 44  1  0  0  0  0
 43 45  1  0  0  0  0
 43 47  1  0  0  0  0
 43 49  1  0  0  0  0
 45 46  1  0  0  0  0
 47 48  1  0  0  0  0
 47 57  1  0  0  0  0
 49 50  1  0  0  0  0
 49 51  1  0  0  0  0
 49 56  1  0  0  0  0
 51 52  1  0  0  0  0
 51 53  1  0  0  0  0
 51 54  1  0  0  0  0
 54 55  1  0  0  0  0
 57 58  1  0  0  0  0
M  BCL ATM C_TeTeTeTe H_S N_TrTrTrPi2 O_Te2Te2TeTe C_TeTeTeTe H_S C_TrTrTrPi C_TrTrTrPi H_S C_TeTeTeTe H_S C_TeTeTeTe H_S O_Te2Te2TeTe H_S N_TrTrTrPi2 H_S O_Tr2Tr2TrPi C_TrTrTrPi H_S C_TeTeTeTe H_S H_S O_Te2Te2TeTe H_S C_TrTrTrPi O_Tr2TrTrPi2 O_Tr2Tr2TrPi P_TeTeTeTePi O_Tr2TrTrPi2 O_Te2Te2TeTe O_Tr2Tr2TrPi P_TeTeTeTePi O_Te2Te2TeTe O_Tr2Tr2TrPi O_Tr2TrTrPi2 C_TeTeTeTe H_S C_TeTeTeTe H_S O_Te2Te2TeTe H_S C_TeTeTeTe H_S O_Te2Te2TeTe H_S C_TeTeTeTe H_S C_TeTeTeTe H_S C_TeTeTeTe H_S H_S O_Te2Te2TeTe H_S O_Te2Te2TeTe O_Te2Te2TeTe H_S
M  BCL BND NonConjugatedSingleBond NonConjugatedSingleBond NonConjugatedSingleBondInRing NonConjugatedSingleBondInRing ConjugatedSingleBondInRing ConjugatedSingleBondInRing NonConjugatedSingleBondInRing NonConjugatedSingleBond NonConjugatedSingleBondInRing NonConjugatedSingleBond ConjugatedSingleBondInRing ConjugatedDoubleBond NonConjugatedSingleBond ConjugatedDoubleBondInRing NonConjugatedSingleBond NonConjugatedSingleBondInRing NonConjugatedSingleBond NonConjugatedSingleBond NonConjugatedSingleBond NonConjugatedSingleBond NonConjugatedSingleBond ConjugatedSingleBondInRing NonConjugatedSingleBond ConjugatedSingleBondInRing NonConjugatedSingleBond NonConjugatedSingleBond NonConjugatedSingleBond NonConjugatedSingleBond ConjugatedDoubleBond ConjugatedSingleBond ConjugatedSingleBond ConjugatedSingleBond ConjugatedDoubleBond ConjugatedSingleBond ConjugatedSingleBond ConjugatedDoubleBond ConjugatedSingleBond NonConjugatedSingleBond NonConjugatedSingleBond NonConjugatedSingleBondInRing NonConjugatedSingleBondInRing NonConjugatedSingleBond NonConjugatedSingleBond NonConjugatedSingleBondInRing NonConjugatedSingleBond NonConjugatedSingleBond NonConjugatedSingleBond NonConjugatedSingleBondInRing NonConjugatedSingleBondInRing NonConjugatedSingleBond NonConjugatedSingleBond NonConjugatedSingleBond NonConjugatedSingleBond NonConjugatedSingleBond NonConjugatedSingleBondInRing NonConjugatedSingleBond NonConjugatedSingleBond NonConjugatedSingleBond NonConjugatedSingleBond NonConjugatedSingleBond
M  BCL CHI   1   S   5   S  10   S  12   R  29   S  33   R  37   S  39   R  43   R  47   R  49   S
M  BCL DBI - Z - - -
M  END
> <ConfClashScore>
0.000798253 

> <ConfOneFourInteractionScore>
-0.972144 

> <ConfScore>
-0.0171081 

> <ConfScorePBest>
0.00943349 

> <ConfTolerance>
1.91964 

$$$$
ChEBI.****
  PyMOL2.5          3D                             0

 58 60  0  0  0  0  0  0  0  0999 V2000
   23.8891   -7.3007   -3.6960 C   0  0  0  1  0  0  0  0  0  0  0  0
   23.7766   -7.9232   -4.5590 H   0  0  0  1  0  0  0  0  0  0  0  0
   23.7175   -5.8962   -4.0800 N   0  0  0  1  0  0  0  0  0  0  0  0
   22.9504   -7.6589   -2.7038 O   0  0  0  1  0  0  0  0  0  0  0  0
   25.2518   -7.5143   -3.0622 C   0  0  0  1  0  0  0  0  0  0  0  0
   25.5740   -8.5289   -3.1697 H   0  0  0  1  0  0  0  0  0  0  0  0
   24.0138   -5.5089   -5.3668 C   0  0  0  1  0  0  0  0  0  0  0  0
   23.2679   -5.0019   -3.1548 C   0  0  0  1  0  0  0  0  0  0  0  0
   23.0812   -5.3349   -2.1874 H   0  0  0  1  0  0  0  0  0  0  0  0
   23.6000   -7.7701   -1.4081 C   0  0  0  1  0  0  0  0  0  0  0  0
   23.0609   -7.2171   -0.6676 H   0  0  0  1  0  0  0  0  0  0  0  0
   24.9918   -7.1749   -1.6171 C   0  0  0  1  0  0  0  0  0  0  0  0
   25.7130   -7.6325   -0.9727 H   0  0  0  1  0  0  0  0  0  0  0  0
   26.2288   -6.6410   -3.6305 O   0  0  0  1  0  0  0  0  0  0  0  0
   27.0739   -6.7802   -3.1969 H   0  0  0  1  0  0  0  0  0  0  0  0
   23.7976   -4.1733   -5.6610 N   0  0  0  1  0  0  0  0  0  0  0  0
   24.0075   -3.8699   -6.5690 H   0  0  0  1  0  0  0  0  0  0  0  0
   24.4407   -6.2940   -6.1973 O   0  0  0  1  0  0  0  0  0  0  0  0
   23.0586   -3.7193   -3.4411 C   0  0  0  1  0  0  0  0  0  0  0  0
   22.7160   -3.0737   -2.7013 H   0  0  0  1  0  0  0  0  0  0  0  0
   23.6972   -9.2003   -0.9896 C   0  0  0  1  0  0  0  0  0  0  0  0
   24.2074   -9.2717   -0.0518 H   0  0  0  1  0  0  0  0  0  0  0  0
   24.2293   -9.7611   -1.7293 H   0  0  0  1  0  0  0  0  0  0  0  0
   24.9917   -5.7619   -1.4053 O   0  0  0  1  0  0  0  0  0  0  0  0
   25.7357   -5.3686   -1.8672 H   0  0  0  1  0  0  0  0  0  0  0  0
   23.3021   -3.2238   -4.7602 C   0  0  0  1  0  0  0  0  0  0  0  0
   22.3501   -9.7120   -0.8579 O   0  0  0  1  0  0  0  0  0  0  0  0
   23.0941   -2.0638   -5.0758 O   0  0  0  1  0  0  0  0  0  0  0  0
   22.0524  -11.0573   -0.0065 P   0  0  0  1  0  0  0  0  0  0  0  0
   20.4878  -11.2792   -0.2533 O   0  0  0  1  0  0  0  0  0  0  0  0
   22.7391  -12.2146   -0.6305 O   0  0  0  0  0  0  0  0  0  0  0  0
   22.3096  -10.6658    1.3799 O   0  0  0  1  0  0  0  0  0  0  0  0
   19.2186  -10.3167   -0.0832 P   0  0  0  1  0  0  0  0  0  0  0  0
   18.2320  -10.9967    0.8035 O   0  0  0  0  0  0  0  0  0  0  0  0
   19.7334   -8.9738    0.2563 O   0  0  0  1  0  0  0  0  0  0  0  0
   18.6418  -10.2441   -1.5377 O   0  0  0  1  0  0  0  0  0  0  0  0
   18.0572  -11.3497   -2.2599 C   0  0  0  1  0  0  0  0  0  0  0  0
   17.0401  -11.4784   -1.9538 H   0  0  0  1  0  0  0  0  0  0  0  0
   18.8441  -12.6266   -1.9577 C   0  0  0  1  0  0  0  0  0  0  0  0
   18.7443  -12.8653   -0.9194 H   0  0  0  1  0  0  0  0  0  0  0  0
   20.2222  -12.4153   -2.2680 O   0  0  0  1  0  0  0  0  0  0  0  0
   20.7602  -13.0445   -1.7820 H   0  0  0  1  0  0  0  0  0  0  0  0
   18.2709  -13.4160   -4.2710 C   0  0  0  1  0  0  0  0  0  0  0  0
   19.2693  -13.3090   -4.6407 H   0  0  0  1  0  0  0  0  0  0  0  0
   17.6041  -14.4530   -4.9923 O   0  0  0  1  0  0  0  0  0  0  0  0
   17.6046  -14.2431   -5.9291 H   0  0  0  1  0  0  0  0  0  0  0  0
   18.3158  -13.7783   -2.7881 C   0  0  0  1  0  0  0  0  0  0  0  0
   18.9551  -14.6260   -2.6554 H   0  0  0  1  0  0  0  0  0  0  0  0
   17.5174  -12.1025   -4.4599 C   0  0  0  1  0  0  0  0  0  0  0  0
   16.4972  -12.2369   -4.1664 H   0  0  0  1  0  0  0  0  0  0  0  0
   17.5745  -11.7037   -5.9089 C   0  0  0  1  0  0  0  0  0  0  0  0
   18.5962  -11.7106   -6.2269 H   0  0  0  1  0  0  0  0  0  0  0  0
   17.1760  -10.7158   -6.0091 H   0  0  0  1  0  0  0  0  0  0  0  0
   16.8318  -12.5814   -6.7428 O   0  0  0  1  0  0  0  0  0  0  0  0
   16.2363  -12.0706   -7.2959 H   0  0  0  1  0  0  0  0  0  0  0  0
   18.0999  -11.0746   -3.6689 O   0  0  0  1  0  0  0  0  0  0  0  0
   16.9963  -14.1028   -2.3480 O   0  0  0  1  0  0  0  0  0  0  0  0
   16.6763  -13.4147   -1.7600 H   0  0  0  1  0  0  0  0  0  0  0  0
  1  2  1  0  0  0  0
  1  3  1  0  0  0  0
  1  4  1  0  0  0  0
  1  5  1  0  0  0  0
  3  7  1  0  0  0  0
  3  8  1  0  0  0  0
  4 10  1  0  0  0  0
  5  6  1  0  0  0  0
  5 12  1  0  0  0  0
  5 14  1  0  0  0  0
  7 16  1  0  0  0  0
  7 18  2  0  0  0  0
  8  9  1  0  0  0  0
  8 19  2  0  0  0  0
 10 11  1  0  0  0  0
 10 12  1  0  0  0  0
 10 21  1  0  0  0  0
 12 13  1  0  0  0  0
 12 24  1  0  0  0  0
 14 15  1  0  0  0  0
 16 17  1  0  0  0  0
 16 26  1  0  0  0  0
 19 20  1  0  0  0  0
 19 26  1  0  0  0  0
 21 22  1  0  0  0  0
 21 23  1  0  0  0  0
 21 27  1  0  0  0  0
 24 25  1  0  0  0  0
 26 28  2  0  0  0  0
 27 29  1  0  0  0  0
 29 30  1  0  0  0  0
 29 31  1  0  0  0  0
 29 32  2  0  0  0  0
 30 33  1  0  0  0  0
 33 34  1  0  0  0  0
 33 35  2  0  0  0  0
 33 36  1  0  0  0  0
 36 37  1  0  0  0  0
 37 38  1  0  0  0  0
 37 39  1  0  0  0  0
 37 56  1  0  0  0  0
 39 40  1  0  0  0  0
 39 41  1  0  0  0  0
 39 47  1  0  0  0  0
 41 42  1  0  0  0  0
 43 44  1  0  0  0  0
 43 45  1  0  0  0  0
 43 47  1  0  0  0  0
 43 49  1  0  0  0  0
 45 46  1  0  0  0  0
 47 48  1  0  0  0  0
 47 57  1  0  0  0  0
 49 50  1  0  0  0  0
 49 51  1  0  0  0  0
 49 56  1  0  0  0  0
 51 52  1  0  0  0  0
 51 53  1  0  0  0  0
 51 54  1  0  0  0  0
 54 55  1  0  0  0  0
 57 58  1  0  0  0  0
M  BCL ATM C_TeTeTeTe H_S N_TrTrTrPi2 O_Te2Te2TeTe C_TeTeTeTe H_S C_TrTrTrPi C_TrTrTrPi H_S C_TeTeTeTe H_S C_TeTeTeTe H_S O_Te2Te2TeTe H_S N_TrTrTrPi2 H_S O_Tr2Tr2TrPi C_TrTrTrPi H_S C_TeTeTeTe H_S H_S O_Te2Te2TeTe H_S C_TrTrTrPi O_Tr2TrTrPi2 O_Tr2Tr2TrPi P_TeTeTeTePi O_Tr2TrTrPi2 O_Te2Te2TeTe O_Tr2Tr2TrPi P_TeTeTeTePi O_Te2Te2TeTe O_Tr2Tr2TrPi O_Tr2TrTrPi2 C_TeTeTeTe H_S C_TeTeTeTe H_S O_Te2Te2TeTe H_S C_TeTeTeTe H_S O_Te2Te2TeTe H_S C_TeTeTeTe H_S C_TeTeTeTe H_S C_TeTeTeTe H_S H_S O_Te2Te2TeTe H_S O_Te2Te2TeTe O_Te2Te2TeTe H_S
M  BCL BND NonConjugatedSingleBond NonConjugatedSingleBond NonConjugatedSingleBondInRing NonConjugatedSingleBondInRing ConjugatedSingleBondInRing ConjugatedSingleBondInRing NonConjugatedSingleBondInRing NonConjugatedSingleBond NonConjugatedSingleBondInRing NonConjugatedSingleBond ConjugatedSingleBondInRing ConjugatedDoubleBond NonConjugatedSingleBond ConjugatedDoubleBondInRing NonConjugatedSingleBond NonConjugatedSingleBondInRing NonConjugatedSingleBond NonConjugatedSingleBond NonConjugatedSingleBond NonConjugatedSingleBond NonConjugatedSingleBond ConjugatedSingleBondInRing NonConjugatedSingleBond ConjugatedSingleBondInRing NonConjugatedSingleBond NonConjugatedSingleBond NonConjugatedSingleBond NonConjugatedSingleBond ConjugatedDoubleBond ConjugatedSingleBond ConjugatedSingleBond ConjugatedSingleBond ConjugatedDoubleBond ConjugatedSingleBond ConjugatedSingleBond ConjugatedDoubleBond ConjugatedSingleBond NonConjugatedSingleBond NonConjugatedSingleBond NonConjugatedSingleBondInRing NonConjugatedSingleBondInRing NonConjugatedSingleBond NonConjugatedSingleBond NonConjugatedSingleBondInRing NonConjugatedSingleBond NonConjugatedSingleBond NonConjugatedSingleBond NonConjugatedSingleBondInRing NonConjugatedSingleBondInRing NonConjugatedSingleBond NonConjugatedSingleBond NonConjugatedSingleBond NonConjugatedSingleBond NonConjugatedSingleBond NonConjugatedSingleBondInRing NonConjugatedSingleBond NonConjugatedSingleBond NonConjugatedSingleBond NonConjugatedSingleBond NonConjugatedSingleBond
M  BCL CHI   1   S   5   S  10   S  12   R  29   S  33   R  37   S  39   R  43   R  47   R  49   S
M  BCL DBI - Z - - -
M  END
> <ConfClashScore>
0 

> <ConfOneFourInteractionScore>
-0.971288 

> <ConfScore>
-0.0164051 

> <ConfScorePBest>
0.00933049 

> <ConfTolerance>
1.63215 

$$$$
ChEBI.****
  PyMOL2.5          3D                             0

 58 60  0  0  0  0  0  0  0  0999 V2000
   26.5436  -13.3058   -2.9842 C   0  0  0  1  0  0  0  0  0  0  0  0
   27.4035  -12.7462   -2.6804 H   0  0  0  1  0  0  0  0  0  0  0  0
   26.9707  -14.5643   -3.5935 N   0  0  0  1  0  0  0  0  0  0  0  0
   25.7009  -13.5540   -1.8787 O   0  0  0  1  0  0  0  0  0  0  0  0
   25.7056  -12.5013   -3.9613 C   0  0  0  1  0  0  0  0  0  0  0  0
   25.7462  -11.4559   -3.7369 H   0  0  0  1  0  0  0  0  0  0  0  0
   26.1785  -15.6781   -3.4368 C   0  0  0  1  0  0  0  0  0  0  0  0
   28.1600  -14.5907   -4.3083 C   0  0  0  1  0  0  0  0  0  0  0  0
   28.7429  -13.7346   -4.4026 H   0  0  0  1  0  0  0  0  0  0  0  0
   24.3196  -13.2527   -2.2166 C   0  0  0  1  0  0  0  0  0  0  0  0
   23.6791  -14.0654   -1.9441 H   0  0  0  1  0  0  0  0  0  0  0  0
   24.3229  -13.0549   -3.7318 C   0  0  0  1  0  0  0  0  0  0  0  0
   23.5685  -12.3599   -4.0365 H   0  0  0  1  0  0  0  0  0  0  0  0
   26.1318  -12.7169   -5.3074 O   0  0  0  1  0  0  0  0  0  0  0  0
   27.0902  -12.7660   -5.3361 H   0  0  0  1  0  0  0  0  0  0  0  0
   26.6221  -16.8467   -4.0055 N   0  0  0  1  0  0  0  0  0  0  0  0
   26.0683  -17.6487   -3.9036 H   0  0  0  1  0  0  0  0  0  0  0  0
   25.1273  -15.6298   -2.8194 O   0  0  0  1  0  0  0  0  0  0  0  0
   28.5473  -15.7662   -4.8848 C   0  0  0  1  0  0  0  0  0  0  0  0
   29.4107  -15.7813   -5.4645 H   0  0  0  1  0  0  0  0  0  0  0  0
   23.8682  -12.0087   -1.5248 C   0  0  0  1  0  0  0  0  0  0  0  0
   24.6243  -11.2553   -1.5996 H   0  0  0  1  0  0  0  0  0  0  0  0
   23.6715  -12.2161   -0.4937 H   0  0  0  1  0  0  0  0  0  0  0  0
   24.1364  -14.2928   -4.4195 O   0  0  0  1  0  0  0  0  0  0  0  0
   24.6710  -14.3002   -5.2168 H   0  0  0  1  0  0  0  0  0  0  0  0
   27.8165  -16.9590   -4.7207 C   0  0  0  1  0  0  0  0  0  0  0  0
   22.6574  -11.5581   -2.1765 O   0  0  0  1  0  0  0  0  0  0  0  0
   28.2033  -18.0252   -5.1754 O   0  0  0  1  0  0  0  0  0  0  0  0
   21.9460  -10.3316   -1.5292 P   0  0  0  1  0  0  0  0  0  0  0  0
   20.8843   -9.8002   -2.6116 O   0  0  0  1  0  0  0  0  0  0  0  0
   21.2088  -10.5854   -0.2665 O   0  0  0  0  0  0  0  0  0  0  0  0
   23.0308   -9.3303   -1.3255 O   0  0  0  1  0  0  0  0  0  0  0  0
   19.5152   -9.0279   -2.4713 P   0  0  0  1  0  0  0  0  0  0  0  0
   19.7718   -7.8438   -1.5065 O   0  0  0  0  0  0  0  0  0  0  0  0
   18.8959   -8.7032   -3.7601 O   0  0  0  1  0  0  0  0  0  0  0  0
   18.6544  -10.0666   -1.6612 O   0  0  0  1  0  0  0  0  0  0  0  0
   18.0680  -11.1727   -2.3021 C   0  0  0  1  0  0  0  0  0  0  0  0
   17.0397  -11.2475   -2.0160 H   0  0  0  1  0  0  0  0  0  0  0  0
   18.8044  -12.4485   -1.8884 C   0  0  0  1  0  0  0  0  0  0  0  0
   18.6704  -12.6089   -0.8390 H   0  0  0  1  0  0  0  0  0  0  0  0
   20.1962  -12.3029   -2.1745 O   0  0  0  1  0  0  0  0  0  0  0  0
   20.5723  -13.1616   -2.3817 H   0  0  0  1  0  0  0  0  0  0  0  0
   18.2647  -13.3837   -4.1550 C   0  0  0  1  0  0  0  0  0  0  0  0
   19.2752  -13.3344   -4.5034 H   0  0  0  1  0  0  0  0  0  0  0  0
   17.5827  -14.4484   -4.8192 O   0  0  0  1  0  0  0  0  0  0  0  0
   17.8345  -14.4617   -5.7455 H   0  0  0  1  0  0  0  0  0  0  0  0
   18.2598  -13.6399   -2.6495 C   0  0  0  1  0  0  0  0  0  0  0  0
   18.8673  -14.4953   -2.4393 H   0  0  0  1  0  0  0  0  0  0  0  0
   17.5600  -12.0643   -4.4574 C   0  0  0  1  0  0  0  0  0  0  0  0
   16.5288  -12.1455   -4.1835 H   0  0  0  1  0  0  0  0  0  0  0  0
   17.6670  -11.7729   -5.9266 C   0  0  0  1  0  0  0  0  0  0  0  0
   18.6973  -11.6603   -6.1927 H   0  0  0  1  0  0  0  0  0  0  0  0
   17.1398  -10.8687   -6.1491 H   0  0  0  1  0  0  0  0  0  0  0  0
   17.1015  -12.8447   -6.6696 O   0  0  0  1  0  0  0  0  0  0  0  0
   16.4569  -12.4986   -7.2911 H   0  0  0  1  0  0  0  0  0  0  0  0
   18.1557  -11.0008   -3.7252 O   0  0  0  1  0  0  0  0  0  0  0  0
   16.9195  -13.8908   -2.2243 O   0  0  0  1  0  0  0  0  0  0  0  0
   16.7708  -14.8380   -2.1757 H   0  0  0  1  0  0  0  0  0  0  0  0
  1  2  1  0  0  0  0
  1  3  1  0  0  0  0
  1  4  1  0  0  0  0
  1  5  1  0  0  0  0
  3  7  1  0  0  0  0
  3  8  1  0  0  0  0
  4 10  1  0  0  0  0
  5  6  1  0  0  0  0
  5 12  1  0  0  0  0
  5 14  1  0  0  0  0
  7 16  1  0  0  0  0
  7 18  2  0  0  0  0
  8  9  1  0  0  0  0
  8 19  2  0  0  0  0
 10 11  1  0  0  0  0
 10 12  1  0  0  0  0
 10 21  1  0  0  0  0
 12 13  1  0  0  0  0
 12 24  1  0  0  0  0
 14 15  1  0  0  0  0
 16 17  1  0  0  0  0
 16 26  1  0  0  0  0
 19 20  1  0  0  0  0
 19 26  1  0  0  0  0
 21 22  1  0  0  0  0
 21 23  1  0  0  0  0
 21 27  1  0  0  0  0
 24 25  1  0  0  0  0
 26 28  2  0  0  0  0
 27 29  1  0  0  0  0
 29 30  1  0  0  0  0
 29 31  1  0  0  0  0
 29 32  2  0  0  0  0
 30 33  1  0  0  0  0
 33 34  1  0  0  0  0
 33 35  2  0  0  0  0
 33 36  1  0  0  0  0
 36 37  1  0  0  0  0
 37 38  1  0  0  0  0
 37 39  1  0  0  0  0
 37 56  1  0  0  0  0
 39 40  1  0  0  0  0
 39 41  1  0  0  0  0
 39 47  1  0  0  0  0
 41 42  1  0  0  0  0
 43 44  1  0  0  0  0
 43 45  1  0  0  0  0
 43 47  1  0  0  0  0
 43 49  1  0  0  0  0
 45 46  1  0  0  0  0
 47 48  1  0  0  0  0
 47 57  1  0  0  0  0
 49 50  1  0  0  0  0
 49 51  1  0  0  0  0
 49 56  1  0  0  0  0
 51 52  1  0  0  0  0
 51 53  1  0  0  0  0
 51 54  1  0  0  0  0
 54 55  1  0  0  0  0
 57 58  1  0  0  0  0
M  BCL ATM C_TeTeTeTe H_S N_TrTrTrPi2 O_Te2Te2TeTe C_TeTeTeTe H_S C_TrTrTrPi C_TrTrTrPi H_S C_TeTeTeTe H_S C_TeTeTeTe H_S O_Te2Te2TeTe H_S N_TrTrTrPi2 H_S O_Tr2Tr2TrPi C_TrTrTrPi H_S C_TeTeTeTe H_S H_S O_Te2Te2TeTe H_S C_TrTrTrPi O_Tr2TrTrPi2 O_Tr2Tr2TrPi P_TeTeTeTePi O_Tr2TrTrPi2 O_Te2Te2TeTe O_Tr2Tr2TrPi P_TeTeTeTePi O_Te2Te2TeTe O_Tr2Tr2TrPi O_Tr2TrTrPi2 C_TeTeTeTe H_S C_TeTeTeTe H_S O_Te2Te2TeTe H_S C_TeTeTeTe H_S O_Te2Te2TeTe H_S C_TeTeTeTe H_S C_TeTeTeTe H_S C_TeTeTeTe H_S H_S O_Te2Te2TeTe H_S O_Te2Te2TeTe O_Te2Te2TeTe H_S
M  BCL BND NonConjugatedSingleBond NonConjugatedSingleBond NonConjugatedSingleBondInRing NonConjugatedSingleBondInRing ConjugatedSingleBondInRing ConjugatedSingleBondInRing NonConjugatedSingleBondInRing NonConjugatedSingleBond NonConjugatedSingleBondInRing NonConjugatedSingleBond ConjugatedSingleBondInRing ConjugatedDoubleBond NonConjugatedSingleBond ConjugatedDoubleBondInRing NonConjugatedSingleBond NonConjugatedSingleBondInRing NonConjugatedSingleBond NonConjugatedSingleBond NonConjugatedSingleBond NonConjugatedSingleBond NonConjugatedSingleBond ConjugatedSingleBondInRing NonConjugatedSingleBond ConjugatedSingleBondInRing NonConjugatedSingleBond NonConjugatedSingleBond NonConjugatedSingleBond NonConjugatedSingleBond ConjugatedDoubleBond ConjugatedSingleBond ConjugatedSingleBond ConjugatedSingleBond ConjugatedDoubleBond ConjugatedSingleBond ConjugatedSingleBond ConjugatedDoubleBond ConjugatedSingleBond NonConjugatedSingleBond NonConjugatedSingleBond NonConjugatedSingleBondInRing NonConjugatedSingleBondInRing NonConjugatedSingleBond NonConjugatedSingleBond NonConjugatedSingleBondInRing NonConjugatedSingleBond NonConjugatedSingleBond NonConjugatedSingleBond NonConjugatedSingleBondInRing NonConjugatedSingleBondInRing NonConjugatedSingleBond NonConjugatedSingleBond NonConjugatedSingleBond NonConjugatedSingleBond NonConjugatedSingleBond NonConjugatedSingleBondInRing NonConjugatedSingleBond NonConjugatedSingleBond NonConjugatedSingleBond NonConjugatedSingleBond NonConjugatedSingleBond
M  BCL CHI   1   S   5   S  10   S  12   R  29   S  33   R  37   S  39   R  43   R  47   R  49   S
M  BCL DBI - Z - - -
M  END
> <ConfClashScore>
0 

> <ConfOneFourInteractionScore>
-0.962574 

> <ConfScore>
-0.0154968 

> <ConfScorePBest>
0.00922749 

> <ConfTolerance>
1.68787 

$$$$
ChEBI.****
  PyMOL2.5          3D                             0

 58 60  0  0  0  0  0  0  0  0999 V2000
   13.6338  -13.6884   -1.4498 C   0  0  0  1  0  0  0  0  0  0  0  0
   14.3881  -13.7052   -2.2085 H   0  0  0  1  0  0  0  0  0  0  0  0
   12.3688  -14.1624   -2.0088 N   0  0  0  1  0  0  0  0  0  0  0  0
   14.0162  -14.4718   -0.3521 O   0  0  0  1  0  0  0  0  0  0  0  0
   13.4768  -12.2752   -0.8701 C   0  0  0  1  0  0  0  0  0  0  0  0
   14.4157  -11.7627   -0.8434 H   0  0  0  1  0  0  0  0  0  0  0  0
   11.6955  -15.1823   -1.3680 C   0  0  0  1  0  0  0  0  0  0  0  0
   11.8922  -13.5838   -3.1448 C   0  0  0  1  0  0  0  0  0  0  0  0
   12.4392  -12.8150   -3.5823 H   0  0  0  1  0  0  0  0  0  0  0  0
   13.6658  -13.8496    0.9046 C   0  0  0  1  0  0  0  0  0  0  0  0
   13.0064  -14.4793    1.4646 H   0  0  0  1  0  0  0  0  0  0  0  0
   12.9647  -12.5432    0.5207 C   0  0  0  1  0  0  0  0  0  0  0  0
   13.2350  -11.7519    1.1883 H   0  0  0  1  0  0  0  0  0  0  0  0
   12.5373  -11.5099   -1.6263 O   0  0  0  1  0  0  0  0  0  0  0  0
   11.6777  -11.9362   -1.5950 H   0  0  0  1  0  0  0  0  0  0  0  0
   10.5183  -15.5735   -1.9924 N   0  0  0  1  0  0  0  0  0  0  0  0
   10.0147  -16.3065   -1.5807 H   0  0  0  1  0  0  0  0  0  0  0  0
   12.1006  -15.6973   -0.3389 O   0  0  0  1  0  0  0  0  0  0  0  0
   10.7369  -13.9702   -3.7246 C   0  0  0  1  0  0  0  0  0  0  0  0
   10.3896  -13.5069   -4.5885 H   0  0  0  1  0  0  0  0  0  0  0  0
   14.8914  -13.5694    1.7105 C   0  0  0  1  0  0  0  0  0  0  0  0
   15.3965  -14.4854    1.9361 H   0  0  0  1  0  0  0  0  0  0  0  0
   14.6237  -13.0755    2.6212 H   0  0  0  1  0  0  0  0  0  0  0  0
   11.5447  -12.7040    0.5219 O   0  0  0  1  0  0  0  0  0  0  0  0
   11.2557  -13.0058   -0.3424 H   0  0  0  1  0  0  0  0  0  0  0  0
   10.0088  -15.0302   -3.1182 C   0  0  0  1  0  0  0  0  0  0  0  0
   15.7528  -12.7125    0.9187 O   0  0  0  1  0  0  0  0  0  0  0  0
    8.9605  -15.4345   -3.5984 O   0  0  0  1  0  0  0  0  0  0  0  0
   16.7471  -11.7268    1.6036 P   0  0  0  1  0  0  0  0  0  0  0  0
   17.3257  -10.7841    0.4384 O   0  0  0  1  0  0  0  0  0  0  0  0
   16.1866  -10.8480    2.6505 O   0  0  0  0  0  0  0  0  0  0  0  0
   17.8172  -12.5931    2.1507 O   0  0  0  1  0  0  0  0  0  0  0  0
   18.7872  -10.2948    0.0884 P   0  0  0  1  0  0  0  0  0  0  0  0
   19.0658   -8.9233    0.6254 O   0  0  0  0  0  0  0  0  0  0  0  0
   19.7296  -11.3727    0.5279 O   0  0  0  1  0  0  0  0  0  0  0  0
   18.7087  -10.2590   -1.4828 O   0  0  0  1  0  0  0  0  0  0  0  0
   18.1185  -11.3584   -2.2235 C   0  0  0  1  0  0  0  0  0  0  0  0
   17.0906  -11.4650   -1.9460 H   0  0  0  1  0  0  0  0  0  0  0  0
   18.8692  -12.6513   -1.8977 C   0  0  0  1  0  0  0  0  0  0  0  0
   18.7352  -12.8859   -0.8624 H   0  0  0  1  0  0  0  0  0  0  0  0
   20.2597  -12.4698   -2.1693 O   0  0  0  1  0  0  0  0  0  0  0  0
   20.5219  -11.5811   -1.9183 H   0  0  0  1  0  0  0  0  0  0  0  0
   18.3448  -13.4325   -4.2253 C   0  0  0  1  0  0  0  0  0  0  0  0
   19.3552  -13.3473   -4.5668 H   0  0  0  1  0  0  0  0  0  0  0  0
   17.6765  -14.4564   -4.9639 O   0  0  0  1  0  0  0  0  0  0  0  0
   16.8816  -14.0962   -5.3637 H   0  0  0  1  0  0  0  0  0  0  0  0
   18.3402  -13.7930   -2.7413 C   0  0  0  1  0  0  0  0  0  0  0  0
   18.9573  -14.6538   -2.5896 H   0  0  0  1  0  0  0  0  0  0  0  0
   17.6249  -12.1036   -4.4369 C   0  0  0  1  0  0  0  0  0  0  0  0
   16.5943  -12.2157   -4.1721 H   0  0  0  1  0  0  0  0  0  0  0  0
   17.7320  -11.7062   -5.8932 C   0  0  0  1  0  0  0  0  0  0  0  0
   17.3651  -12.5103   -6.4964 H   0  0  0  1  0  0  0  0  0  0  0  0
   18.7609  -11.5264   -6.1253 H   0  0  0  1  0  0  0  0  0  0  0  0
   16.9853  -10.5342   -6.1924 O   0  0  0  1  0  0  0  0  0  0  0  0
   17.4200   -9.7702   -5.8066 H   0  0  0  1  0  0  0  0  0  0  0  0
   18.2067  -11.0868   -3.6310 O   0  0  0  1  0  0  0  0  0  0  0  0
   17.0022  -14.0886   -2.3382 O   0  0  0  1  0  0  0  0  0  0  0  0
   16.6720  -14.8339   -2.8452 H   0  0  0  1  0  0  0  0  0  0  0  0
  1  2  1  0  0  0  0
  1  3  1  0  0  0  0
  1  4  1  0  0  0  0
  1  5  1  0  0  0  0
  3  7  1  0  0  0  0
  3  8  1  0  0  0  0
  4 10  1  0  0  0  0
  5  6  1  0  0  0  0
  5 12  1  0  0  0  0
  5 14  1  0  0  0  0
  7 16  1  0  0  0  0
  7 18  2  0  0  0  0
  8  9  1  0  0  0  0
  8 19  2  0  0  0  0
 10 11  1  0  0  0  0
 10 12  1  0  0  0  0
 10 21  1  0  0  0  0
 12 13  1  0  0  0  0
 12 24  1  0  0  0  0
 14 15  1  0  0  0  0
 16 17  1  0  0  0  0
 16 26  1  0  0  0  0
 19 20  1  0  0  0  0
 19 26  1  0  0  0  0
 21 22  1  0  0  0  0
 21 23  1  0  0  0  0
 21 27  1  0  0  0  0
 24 25  1  0  0  0  0
 26 28  2  0  0  0  0
 27 29  1  0  0  0  0
 29 30  1  0  0  0  0
 29 31  1  0  0  0  0
 29 32  2  0  0  0  0
 30 33  1  0  0  0  0
 33 34  1  0  0  0  0
 33 35  2  0  0  0  0
 33 36  1  0  0  0  0
 36 37  1  0  0  0  0
 37 38  1  0  0  0  0
 37 39  1  0  0  0  0
 37 56  1  0  0  0  0
 39 40  1  0  0  0  0
 39 41  1  0  0  0  0
 39 47  1  0  0  0  0
 41 42  1  0  0  0  0
 43 44  1  0  0  0  0
 43 45  1  0  0  0  0
 43 47  1  0  0  0  0
 43 49  1  0  0  0  0
 45 46  1  0  0  0  0
 47 48  1  0  0  0  0
 47 57  1  0  0  0  0
 49 50  1  0  0  0  0
 49 51  1  0  0  0  0
 49 56  1  0  0  0  0
 51 52  1  0  0  0  0
 51 53  1  0  0  0  0
 51 54  1  0  0  0  0
 54 55  1  0  0  0  0
 57 58  1  0  0  0  0
M  BCL ATM C_TeTeTeTe H_S N_TrTrTrPi2 O_Te2Te2TeTe C_TeTeTeTe H_S C_TrTrTrPi C_TrTrTrPi H_S C_TeTeTeTe H_S C_TeTeTeTe H_S O_Te2Te2TeTe H_S N_TrTrTrPi2 H_S O_Tr2Tr2TrPi C_TrTrTrPi H_S C_TeTeTeTe H_S H_S O_Te2Te2TeTe H_S C_TrTrTrPi O_Tr2TrTrPi2 O_Tr2Tr2TrPi P_TeTeTeTePi O_Tr2TrTrPi2 O_Te2Te2TeTe O_Tr2Tr2TrPi P_TeTeTeTePi O_Te2Te2TeTe O_Tr2Tr2TrPi O_Tr2TrTrPi2 C_TeTeTeTe H_S C_TeTeTeTe H_S O_Te2Te2TeTe H_S C_TeTeTeTe H_S O_Te2Te2TeTe H_S C_TeTeTeTe H_S C_TeTeTeTe H_S C_TeTeTeTe H_S H_S O_Te2Te2TeTe H_S O_Te2Te2TeTe O_Te2Te2TeTe H_S
M  BCL BND NonConjugatedSingleBond NonConjugatedSingleBond NonConjugatedSingleBondInRing NonConjugatedSingleBondInRing ConjugatedSingleBondInRing ConjugatedSingleBondInRing NonConjugatedSingleBondInRing NonConjugatedSingleBond NonConjugatedSingleBondInRing NonConjugatedSingleBond ConjugatedSingleBondInRing ConjugatedDoubleBond NonConjugatedSingleBond ConjugatedDoubleBondInRing NonConjugatedSingleBond NonConjugatedSingleBondInRing NonConjugatedSingleBond NonConjugatedSingleBond NonConjugatedSingleBond NonConjugatedSingleBond NonConjugatedSingleBond ConjugatedSingleBondInRing NonConjugatedSingleBond ConjugatedSingleBondInRing NonConjugatedSingleBond NonConjugatedSingleBond NonConjugatedSingleBond NonConjugatedSingleBond ConjugatedDoubleBond ConjugatedSingleBond ConjugatedSingleBond ConjugatedSingleBond ConjugatedDoubleBond ConjugatedSingleBond ConjugatedSingleBond ConjugatedDoubleBond ConjugatedSingleBond NonConjugatedSingleBond NonConjugatedSingleBond NonConjugatedSingleBondInRing NonConjugatedSingleBondInRing NonConjugatedSingleBond NonConjugatedSingleBond NonConjugatedSingleBondInRing NonConjugatedSingleBond NonConjugatedSingleBond NonConjugatedSingleBond NonConjugatedSingleBondInRing NonConjugatedSingleBondInRing NonConjugatedSingleBond NonConjugatedSingleBond NonConjugatedSingleBond NonConjugatedSingleBond NonConjugatedSingleBond NonConjugatedSingleBondInRing NonConjugatedSingleBond NonConjugatedSingleBond NonConjugatedSingleBond NonConjugatedSingleBond NonConjugatedSingleBond
M  BCL CHI   1   S   5   S  10   S  12   R  29   S  33   R  37   S  39   R  43   R  47   R  49   S
M  BCL DBI - Z - - -
M  END
> <ConfClashScore>
0.000445434 

> <ConfOneFourInteractionScore>
-0.98619 

> <ConfScore>
-0.0141008 

> <ConfScorePBest>
0.00912449 

> <ConfTolerance>
1.85448 

$$$$
ChEBI.****
  PyMOL2.5          3D                             0

 58 60  0  0  0  0  0  0  0  0999 V2000
   15.0161   -6.4423   -2.8802 C   0  0  0  1  0  0  0  0  0  0  0  0
   14.0196   -6.8297   -2.8379 H   0  0  0  1  0  0  0  0  0  0  0  0
   15.3198   -6.0195   -4.2533 N   0  0  0  1  0  0  0  0  0  0  0  0
   15.1622   -5.3586   -1.9867 O   0  0  0  1  0  0  0  0  0  0  0  0
   16.0121   -7.4892   -2.4153 C   0  0  0  1  0  0  0  0  0  0  0  0
   15.5944   -8.1074   -1.6483 H   0  0  0  1  0  0  0  0  0  0  0  0
   16.1624   -4.9663   -4.4493 C   0  0  0  1  0  0  0  0  0  0  0  0
   14.7449   -6.6989   -5.3035 C   0  0  0  1  0  0  0  0  0  0  0  0
   14.0996   -7.4907   -5.1079 H   0  0  0  1  0  0  0  0  0  0  0  0
   16.3788   -5.5067   -1.2050 C   0  0  0  1  0  0  0  0  0  0  0  0
   16.9529   -4.6040   -1.2267 H   0  0  0  1  0  0  0  0  0  0  0  0
   17.1408   -6.6455   -1.8813 C   0  0  0  1  0  0  0  0  0  0  0  0
   17.7356   -7.1894   -1.1775 H   0  0  0  1  0  0  0  0  0  0  0  0
   16.4432   -8.2989   -3.4915 O   0  0  0  1  0  0  0  0  0  0  0  0
   16.6188   -7.7472   -4.2573 H   0  0  0  1  0  0  0  0  0  0  0  0
   16.4093   -4.6361   -5.7464 N   0  0  0  1  0  0  0  0  0  0  0  0
   17.0107   -3.8786   -5.9043 H   0  0  0  1  0  0  0  0  0  0  0  0
   16.6644   -4.3569   -3.5193 O   0  0  0  1  0  0  0  0  0  0  0  0
   15.0019   -6.3582   -6.5711 C   0  0  0  1  0  0  0  0  0  0  0  0
   14.5556   -6.8845   -7.3492 H   0  0  0  1  0  0  0  0  0  0  0  0
   16.0536   -5.8596    0.2171 C   0  0  0  1  0  0  0  0  0  0  0  0
   15.5368   -5.0574    0.7012 H   0  0  0  1  0  0  0  0  0  0  0  0
   16.9420   -6.0945    0.7652 H   0  0  0  1  0  0  0  0  0  0  0  0
   17.9715   -6.1626   -2.9332 O   0  0  0  1  0  0  0  0  0  0  0  0
   18.0754   -6.8462   -3.5991 H   0  0  0  1  0  0  0  0  0  0  0  0
   15.8921   -5.2680   -6.8628 C   0  0  0  1  0  0  0  0  0  0  0  0
   15.2075   -7.0137    0.0923 O   0  0  0  1  0  0  0  0  0  0  0  0
   16.1687   -4.9281   -8.0014 O   0  0  0  1  0  0  0  0  0  0  0  0
   15.5151   -8.4729    0.7244 P   0  0  0  1  0  0  0  0  0  0  0  0
   16.6741   -9.0204   -0.2282 O   0  0  0  1  0  0  0  0  0  0  0  0
   16.1161   -8.3258    2.0621 O   0  0  0  0  0  0  0  0  0  0  0  0
   14.2680   -9.2242    0.5149 O   0  0  0  1  0  0  0  0  0  0  0  0
   17.9392  -10.0500    0.0327 P   0  0  0  1  0  0  0  0  0  0  0  0
   18.8620   -9.1853    0.8771 O   0  0  0  0  0  0  0  0  0  0  0  0
   17.3725  -11.2337    0.7756 O   0  0  0  1  0  0  0  0  0  0  0  0
   18.5712  -10.3947   -1.3665 O   0  0  0  1  0  0  0  0  0  0  0  0
   18.0495  -11.4378   -2.1577 C   0  0  0  1  0  0  0  0  0  0  0  0
   17.0162  -11.5833   -1.9208 H   0  0  0  1  0  0  0  0  0  0  0  0
   18.8223  -12.7271   -1.8724 C   0  0  0  1  0  0  0  0  0  0  0  0
   18.6608  -13.0177   -0.8553 H   0  0  0  1  0  0  0  0  0  0  0  0
   20.2158  -12.4985   -2.0874 O   0  0  0  1  0  0  0  0  0  0  0  0
   20.3661  -12.2807   -3.0102 H   0  0  0  1  0  0  0  0  0  0  0  0
   18.3941  -13.4005   -4.2528 C   0  0  0  1  0  0  0  0  0  0  0  0
   19.4126  -13.2735   -4.5553 H   0  0  0  1  0  0  0  0  0  0  0  0
   17.7766  -14.4016   -5.0646 O   0  0  0  1  0  0  0  0  0  0  0  0
   17.0757  -14.0037   -5.5862 H   0  0  0  1  0  0  0  0  0  0  0  0
   18.3506  -13.8366   -2.7899 C   0  0  0  1  0  0  0  0  0  0  0  0
   18.9846  -14.6889   -2.6610 H   0  0  0  1  0  0  0  0  0  0  0  0
   17.6475  -12.0803   -4.4213 C   0  0  0  1  0  0  0  0  0  0  0  0
   16.6120  -12.2307   -4.1975 H   0  0  0  1  0  0  0  0  0  0  0  0
   17.7906  -11.6093   -5.8425 C   0  0  0  1  0  0  0  0  0  0  0  0
   17.5789  -12.4278   -6.4984 H   0  0  0  1  0  0  0  0  0  0  0  0
   18.7972  -11.2801   -5.9953 H   0  0  0  1  0  0  0  0  0  0  0  0
   16.9068  -10.5358   -6.1513 O   0  0  0  1  0  0  0  0  0  0  0  0
   17.0293  -10.2731   -7.0665 H   0  0  0  1  0  0  0  0  0  0  0  0
   18.1762  -11.0924   -3.5460 O   0  0  0  1  0  0  0  0  0  0  0  0
   17.0084  -14.1847   -2.4475 O   0  0  0  1  0  0  0  0  0  0  0  0
   16.7605  -13.7424   -1.6324 H   0  0  0  1  0  0  0  0  0  0  0  0
  1  2  1  0  0  0  0
  1  3  1  0  0  0  0
  1  4  1  0  0  0  0
  1  5  1  0  0  0  0
  3  7  1  0  0  0  0
  3  8  1  0  0  0  0
  4 10  1  0  0  0  0
  5  6  1  0  0  0  0
  5 12  1  0  0  0  0
  5 14  1  0  0  0  0
  7 16  1  0  0  0  0
  7 18  2  0  0  0  0
  8  9  1  0  0  0  0
  8 19  2  0  0  0  0
 10 11  1  0  0  0  0
 10 12  1  0  0  0  0
 10 21  1  0  0  0  0
 12 13  1  0  0  0  0
 12 24  1  0  0  0  0
 14 15  1  0  0  0  0
 16 17  1  0  0  0  0
 16 26  1  0  0  0  0
 19 20  1  0  0  0  0
 19 26  1  0  0  0  0
 21 22  1  0  0  0  0
 21 23  1  0  0  0  0
 21 27  1  0  0  0  0
 24 25  1  0  0  0  0
 26 28  2  0  0  0  0
 27 29  1  0  0  0  0
 29 30  1  0  0  0  0
 29 31  1  0  0  0  0
 29 32  2  0  0  0  0
 30 33  1  0  0  0  0
 33 34  1  0  0  0  0
 33 35  2  0  0  0  0
 33 36  1  0  0  0  0
 36 37  1  0  0  0  0
 37 38  1  0  0  0  0
 37 39  1  0  0  0  0
 37 56  1  0  0  0  0
 39 40  1  0  0  0  0
 39 41  1  0  0  0  0
 39 47  1  0  0  0  0
 41 42  1  0  0  0  0
 43 44  1  0  0  0  0
 43 45  1  0  0  0  0
 43 47  1  0  0  0  0
 43 49  1  0  0  0  0
 45 46  1  0  0  0  0
 47 48  1  0  0  0  0
 47 57  1  0  0  0  0
 49 50  1  0  0  0  0
 49 51  1  0  0  0  0
 49 56  1  0  0  0  0
 51 52  1  0  0  0  0
 51 53  1  0  0  0  0
 51 54  1  0  0  0  0
 54 55  1  0  0  0  0
 57 58  1  0  0  0  0
M  BCL ATM C_TeTeTeTe H_S N_TrTrTrPi2 O_Te2Te2TeTe C_TeTeTeTe H_S C_TrTrTrPi C_TrTrTrPi H_S C_TeTeTeTe H_S C_TeTeTeTe H_S O_Te2Te2TeTe H_S N_TrTrTrPi2 H_S O_Tr2Tr2TrPi C_TrTrTrPi H_S C_TeTeTeTe H_S H_S O_Te2Te2TeTe H_S C_TrTrTrPi O_Tr2TrTrPi2 O_Tr2Tr2TrPi P_TeTeTeTePi O_Tr2TrTrPi2 O_Te2Te2TeTe O_Tr2Tr2TrPi P_TeTeTeTePi O_Te2Te2TeTe O_Tr2Tr2TrPi O_Tr2TrTrPi2 C_TeTeTeTe H_S C_TeTeTeTe H_S O_Te2Te2TeTe H_S C_TeTeTeTe H_S O_Te2Te2TeTe H_S C_TeTeTeTe H_S C_TeTeTeTe H_S C_TeTeTeTe H_S H_S O_Te2Te2TeTe H_S O_Te2Te2TeTe O_Te2Te2TeTe H_S
M  BCL BND NonConjugatedSingleBond NonConjugatedSingleBond NonConjugatedSingleBondInRing NonConjugatedSingleBondInRing ConjugatedSingleBondInRing ConjugatedSingleBondInRing NonConjugatedSingleBondInRing NonConjugatedSingleBond NonConjugatedSingleBondInRing NonConjugatedSingleBond ConjugatedSingleBondInRing ConjugatedDoubleBond NonConjugatedSingleBond ConjugatedDoubleBondInRing NonConjugatedSingleBond NonConjugatedSingleBondInRing NonConjugatedSingleBond NonConjugatedSingleBond NonConjugatedSingleBond NonConjugatedSingleBond NonConjugatedSingleBond ConjugatedSingleBondInRing NonConjugatedSingleBond ConjugatedSingleBondInRing NonConjugatedSingleBond NonConjugatedSingleBond NonConjugatedSingleBond NonConjugatedSingleBond ConjugatedDoubleBond ConjugatedSingleBond ConjugatedSingleBond ConjugatedSingleBond ConjugatedDoubleBond ConjugatedSingleBond ConjugatedSingleBond ConjugatedDoubleBond ConjugatedSingleBond NonConjugatedSingleBond NonConjugatedSingleBond NonConjugatedSingleBondInRing NonConjugatedSingleBondInRing NonConjugatedSingleBond NonConjugatedSingleBond NonConjugatedSingleBondInRing NonConjugatedSingleBond NonConjugatedSingleBond NonConjugatedSingleBond NonConjugatedSingleBondInRing NonConjugatedSingleBondInRing NonConjugatedSingleBond NonConjugatedSingleBond NonConjugatedSingleBond NonConjugatedSingleBond NonConjugatedSingleBond NonConjugatedSingleBondInRing NonConjugatedSingleBond NonConjugatedSingleBond NonConjugatedSingleBond NonConjugatedSingleBond NonConjugatedSingleBond
M  BCL CHI   1   S   5   S  10   S  12   R  29   S  33   R  37   S  39   R  43   R  47   R  49   S
M  BCL DBI - Z - - -
M  END
> <ConfClashScore>
0 

> <ConfOneFourInteractionScore>
-0.980309 

> <ConfScore>
-0.0113351 

> <ConfScorePBest>
0.00902149 

> <ConfTolerance>
1.97434 

$$$$
ChEBI.****
  PyMOL2.5          3D                             0

 58 60  0  0  0  0  0  0  0  0999 V2000
   23.2437   -8.8772    3.4221 C   0  0  0  1  0  0  0  0  0  0  0  0
   24.2454   -8.8331    3.0486 H   0  0  0  1  0  0  0  0  0  0  0  0
   23.2340   -9.5649    4.7160 N   0  0  0  1  0  0  0  0  0  0  0  0
   22.7075   -7.5772    3.5505 O   0  0  0  1  0  0  0  0  0  0  0  0
   22.3406   -9.5934    2.4343 C   0  0  0  1  0  0  0  0  0  0  0  0
   22.6430   -9.4041    1.4256 H   0  0  0  1  0  0  0  0  0  0  0  0
   24.2155  -10.4993    4.9906 C   0  0  0  1  0  0  0  0  0  0  0  0
   22.2453   -9.2641    5.6310 C   0  0  0  1  0  0  0  0  0  0  0  0
   21.5220   -8.5647    5.3678 H   0  0  0  1  0  0  0  0  0  0  0  0
   21.3720   -7.5211    2.9793 C   0  0  0  1  0  0  0  0  0  0  0  0
   20.6870   -7.0693    3.6661 H   0  0  0  1  0  0  0  0  0  0  0  0
   20.9951   -8.9798    2.7244 C   0  0  0  1  0  0  0  0  0  0  0  0
   20.3352   -9.0721    1.8872 H   0  0  0  1  0  0  0  0  0  0  0  0
   22.3285  -11.0017    2.6722 O   0  0  0  1  0  0  0  0  0  0  0  0
   23.2283  -11.3140    2.7928 H   0  0  0  1  0  0  0  0  0  0  0  0
   24.1576  -11.0739    6.2470 N   0  0  0  1  0  0  0  0  0  0  0  0
   24.8556  -11.7229    6.4752 H   0  0  0  1  0  0  0  0  0  0  0  0
   25.0756  -10.7969    4.1782 O   0  0  0  1  0  0  0  0  0  0  0  0
   22.1746   -9.8302    6.8393 C   0  0  0  1  0  0  0  0  0  0  0  0
   21.4096   -9.5772    7.4969 H   0  0  0  1  0  0  0  0  0  0  0  0
   21.3787   -6.7486    1.7012 C   0  0  0  1  0  0  0  0  0  0  0  0
   22.1033   -7.1605    1.0303 H   0  0  0  1  0  0  0  0  0  0  0  0
   21.6147   -5.7234    1.8964 H   0  0  0  1  0  0  0  0  0  0  0  0
   20.3962   -9.5647    3.8641 O   0  0  0  1  0  0  0  0  0  0  0  0
   20.0214   -8.8761    4.4182 H   0  0  0  1  0  0  0  0  0  0  0  0
   23.1867  -10.8083    7.2222 C   0  0  0  1  0  0  0  0  0  0  0  0
   20.0569   -6.8482    1.1208 O   0  0  0  1  0  0  0  0  0  0  0  0
   23.1880  -11.3565    8.3142 O   0  0  0  1  0  0  0  0  0  0  0  0
   19.7911   -7.4771   -0.2326 P   0  0  0  1  0  0  0  0  0  0  0  0
   18.3594   -8.1828    0.0312 O   0  0  0  1  0  0  0  0  0  0  0  0
   19.7088   -6.5004   -1.3726 O   0  0  0  0  0  0  0  0  0  0  0  0
   20.7281   -8.5951   -0.3898 O   0  0  0  1  0  0  0  0  0  0  0  0
   17.5489   -8.9104   -1.1286 P   0  0  0  1  0  0  0  0  0  0  0  0
   16.3998   -9.5687   -0.4738 O   0  0  0  0  0  0  0  0  0  0  0  0
   17.3119   -7.9876   -2.2542 O   0  0  0  1  0  0  0  0  0  0  0  0
   18.5102  -10.0908   -1.5562 O   0  0  0  1  0  0  0  0  0  0  0  0
   18.0023  -11.2361   -2.2743 C   0  0  0  1  0  0  0  0  0  0  0  0
   16.9682  -11.3762   -2.0376 H   0  0  0  1  0  0  0  0  0  0  0  0
   18.7903  -12.4823   -1.8655 C   0  0  0  1  0  0  0  0  0  0  0  0
   18.6196  -12.6834   -0.8285 H   0  0  0  1  0  0  0  0  0  0  0  0
   20.1829  -12.2516   -2.0835 O   0  0  0  1  0  0  0  0  0  0  0  0
   20.5215  -12.8995   -2.7057 H   0  0  0  1  0  0  0  0  0  0  0  0
   18.4038  -13.3723   -4.1810 C   0  0  0  1  0  0  0  0  0  0  0  0
   19.4242  -13.2567   -4.4814 H   0  0  0  1  0  0  0  0  0  0  0  0
   17.8117  -14.4522   -4.9076 O   0  0  0  1  0  0  0  0  0  0  0  0
   16.9927  -14.1558   -5.3113 H   0  0  0  1  0  0  0  0  0  0  0  0
   18.3473  -13.6767   -2.6855 C   0  0  0  1  0  0  0  0  0  0  0  0
   18.9920  -14.5039   -2.4733 H   0  0  0  1  0  0  0  0  0  0  0  0
   17.6400  -12.0845   -4.4759 C   0  0  0  1  0  0  0  0  0  0  0  0
   16.6040  -12.2308   -4.2519 H   0  0  0  1  0  0  0  0  0  0  0  0
   17.7950  -11.7401   -5.9317 C   0  0  0  1  0  0  0  0  0  0  0  0
   17.6198  -12.6209   -6.5134 H   0  0  0  1  0  0  0  0  0  0  0  0
   18.7940  -11.3949   -6.0983 H   0  0  0  1  0  0  0  0  0  0  0  0
   16.8874  -10.7292   -6.3500 O   0  0  0  1  0  0  0  0  0  0  0  0
   17.2501  -10.2672   -7.1093 H   0  0  0  1  0  0  0  0  0  0  0  0
   18.1424  -11.0141   -3.6863 O   0  0  0  1  0  0  0  0  0  0  0  0
   17.0058  -14.0141   -2.3295 O   0  0  0  1  0  0  0  0  0  0  0  0
   16.9375  -14.9630   -2.2006 H   0  0  0  1  0  0  0  0  0  0  0  0
  1  2  1  0  0  0  0
  1  3  1  0  0  0  0
  1  4  1  0  0  0  0
  1  5  1  0  0  0  0
  3  7  1  0  0  0  0
  3  8  1  0  0  0  0
  4 10  1  0  0  0  0
  5  6  1  0  0  0  0
  5 12  1  0  0  0  0
  5 14  1  0  0  0  0
  7 16  1  0  0  0  0
  7 18  2  0  0  0  0
  8  9  1  0  0  0  0
  8 19  2  0  0  0  0
 10 11  1  0  0  0  0
 10 12  1  0  0  0  0
 10 21  1  0  0  0  0
 12 13  1  0  0  0  0
 12 24  1  0  0  0  0
 14 15  1  0  0  0  0
 16 17  1  0  0  0  0
 16 26  1  0  0  0  0
 19 20  1  0  0  0  0
 19 26  1  0  0  0  0
 21 22  1  0  0  0  0
 21 23  1  0  0  0  0
 21 27  1  0  0  0  0
 24 25  1  0  0  0  0
 26 28  2  0  0  0  0
 27 29  1  0  0  0  0
 29 30  1  0  0  0  0
 29 31  1  0  0  0  0
 29 32  2  0  0  0  0
 30 33  1  0  0  0  0
 33 34  1  0  0  0  0
 33 35  2  0  0  0  0
 33 36  1  0  0  0  0
 36 37  1  0  0  0  0
 37 38  1  0  0  0  0
 37 39  1  0  0  0  0
 37 56  1  0  0  0  0
 39 40  1  0  0  0  0
 39 41  1  0  0  0  0
 39 47  1  0  0  0  0
 41 42  1  0  0  0  0
 43 44  1  0  0  0  0
 43 45  1  0  0  0  0
 43 47  1  0  0  0  0
 43 49  1  0  0  0  0
 45 46  1  0  0  0  0
 47 48  1  0  0  0  0
 47 57  1  0  0  0  0
 49 50  1  0  0  0  0
 49 51  1  0  0  0  0
 49 56  1  0  0  0  0
 51 52  1  0  0  0  0
 51 53  1  0  0  0  0
 51 54  1  0  0  0  0
 54 55  1  0  0  0  0
 57 58  1  0  0  0  0
M  BCL ATM C_TeTeTeTe H_S N_TrTrTrPi2 O_Te2Te2TeTe C_TeTeTeTe H_S C_TrTrTrPi C_TrTrTrPi H_S C_TeTeTeTe H_S C_TeTeTeTe H_S O_Te2Te2TeTe H_S N_TrTrTrPi2 H_S O_Tr2Tr2TrPi C_TrTrTrPi H_S C_TeTeTeTe H_S H_S O_Te2Te2TeTe H_S C_TrTrTrPi O_Tr2TrTrPi2 O_Tr2Tr2TrPi P_TeTeTeTePi O_Tr2TrTrPi2 O_Te2Te2TeTe O_Tr2Tr2TrPi P_TeTeTeTePi O_Te2Te2TeTe O_Tr2Tr2TrPi O_Tr2TrTrPi2 C_TeTeTeTe H_S C_TeTeTeTe H_S O_Te2Te2TeTe H_S C_TeTeTeTe H_S O_Te2Te2TeTe H_S C_TeTeTeTe H_S C_TeTeTeTe H_S C_TeTeTeTe H_S H_S O_Te2Te2TeTe H_S O_Te2Te2TeTe O_Te2Te2TeTe H_S
M  BCL BND NonConjugatedSingleBond NonConjugatedSingleBond NonConjugatedSingleBondInRing NonConjugatedSingleBondInRing ConjugatedSingleBondInRing ConjugatedSingleBondInRing NonConjugatedSingleBondInRing NonConjugatedSingleBond NonConjugatedSingleBondInRing NonConjugatedSingleBond ConjugatedSingleBondInRing ConjugatedDoubleBond NonConjugatedSingleBond ConjugatedDoubleBondInRing NonConjugatedSingleBond NonConjugatedSingleBondInRing NonConjugatedSingleBond NonConjugatedSingleBond NonConjugatedSingleBond NonConjugatedSingleBond NonConjugatedSingleBond ConjugatedSingleBondInRing NonConjugatedSingleBond ConjugatedSingleBondInRing NonConjugatedSingleBond NonConjugatedSingleBond NonConjugatedSingleBond NonConjugatedSingleBond ConjugatedDoubleBond ConjugatedSingleBond ConjugatedSingleBond ConjugatedSingleBond ConjugatedDoubleBond ConjugatedSingleBond ConjugatedSingleBond ConjugatedDoubleBond ConjugatedSingleBond NonConjugatedSingleBond NonConjugatedSingleBond NonConjugatedSingleBondInRing NonConjugatedSingleBondInRing NonConjugatedSingleBond NonConjugatedSingleBond NonConjugatedSingleBondInRing NonConjugatedSingleBond NonConjugatedSingleBond NonConjugatedSingleBond NonConjugatedSingleBondInRing NonConjugatedSingleBondInRing NonConjugatedSingleBond NonConjugatedSingleBond NonConjugatedSingleBond NonConjugatedSingleBond NonConjugatedSingleBond NonConjugatedSingleBondInRing NonConjugatedSingleBond NonConjugatedSingleBond NonConjugatedSingleBond NonConjugatedSingleBond NonConjugatedSingleBond
M  BCL CHI   1   S   5   S  10   S  12   R  29   S  33   R  37   S  39   R  43   R  47   R  49   S
M  BCL DBI - Z - - -
M  END
> <ConfClashScore>
0 

> <ConfOneFourInteractionScore>
-0.974253 

> <ConfScore>
-0.0104736 

> <ConfScorePBest>
0.00891849 

> <ConfTolerance>
1.72801 

$$$$
ChEBI.****
  PyMOL2.5          3D                             0

 58 60  0  0  0  0  0  0  0  0999 V2000
   18.6705  -12.6250    5.9824 C   0  0  0  1  0  0  0  0  0  0  0  0
   19.2229  -13.4890    6.2875 H   0  0  0  1  0  0  0  0  0  0  0  0
   18.2393  -11.8747    7.1688 N   0  0  0  1  0  0  0  0  0  0  0  0
   19.4703  -11.8119    5.1708 O   0  0  0  1  0  0  0  0  0  0  0  0
   17.4437  -13.0532    5.1616 C   0  0  0  1  0  0  0  0  0  0  0  0
   17.2430  -14.0970    5.2841 H   0  0  0  1  0  0  0  0  0  0  0  0
   17.2903  -12.4205    8.0025 C   0  0  0  1  0  0  0  0  0  0  0  0
   18.7876  -10.6525    7.4208 C   0  0  0  1  0  0  0  0  0  0  0  0
   19.4826  -10.2685    6.7491 H   0  0  0  1  0  0  0  0  0  0  0  0
   18.8219  -11.5726    3.8847 C   0  0  0  1  0  0  0  0  0  0  0  0
   18.2862  -10.6464    3.8969 H   0  0  0  1  0  0  0  0  0  0  0  0
   17.8729  -12.7377    3.7225 C   0  0  0  1  0  0  0  0  0  0  0  0
   18.3687  -13.5758    3.2790 H   0  0  0  1  0  0  0  0  0  0  0  0
   16.2884  -12.2990    5.5312 O   0  0  0  1  0  0  0  0  0  0  0  0
   15.7853  -12.7850    6.1887 H   0  0  0  1  0  0  0  0  0  0  0  0
   16.9580  -11.6669    9.1155 N   0  0  0  1  0  0  0  0  0  0  0  0
   16.2792  -12.0299    9.7220 H   0  0  0  1  0  0  0  0  0  0  0  0
   16.7735  -13.5019    7.7750 O   0  0  0  1  0  0  0  0  0  0  0  0
   18.4682   -9.9315    8.4926 C   0  0  0  1  0  0  0  0  0  0  0  0
   18.9121   -9.0029    8.6422 H   0  0  0  1  0  0  0  0  0  0  0  0
   19.8277  -11.5522    2.7811 C   0  0  0  1  0  0  0  0  0  0  0  0
   19.3327  -11.6266    1.8354 H   0  0  0  1  0  0  0  0  0  0  0  0
   20.5084  -12.3701    2.8932 H   0  0  0  1  0  0  0  0  0  0  0  0
   16.7474  -12.3717    2.9229 O   0  0  0  1  0  0  0  0  0  0  0  0
   16.9111  -12.6149    2.0087 H   0  0  0  1  0  0  0  0  0  0  0  0
   17.5181  -10.4261    9.4401 C   0  0  0  1  0  0  0  0  0  0  0  0
   20.5458  -10.2987    2.8641 O   0  0  0  1  0  0  0  0  0  0  0  0
   17.2191   -9.8142   10.4523 O   0  0  0  1  0  0  0  0  0  0  0  0
   20.0132   -9.0426    1.9982 P   0  0  0  1  0  0  0  0  0  0  0  0
   19.6687   -9.6984    0.5601 O   0  0  0  1  0  0  0  0  0  0  0  0
   18.7422   -8.5483    2.5726 O   0  0  0  0  0  0  0  0  0  0  0  0
   21.1646   -8.1079    1.8870 O   0  0  0  1  0  0  0  0  0  0  0  0
   18.1697  -10.0806    0.0483 P   0  0  0  1  0  0  0  0  0  0  0  0
   17.7280  -11.3564    0.6644 O   0  0  0  0  0  0  0  0  0  0  0  0
   17.2939   -8.9048    0.1060 O   0  0  0  1  0  0  0  0  0  0  0  0
   18.6682  -10.3368   -1.4220 O   0  0  0  1  0  0  0  0  0  0  0  0
   18.0992  -11.3814   -2.2182 C   0  0  0  1  0  0  0  0  0  0  0  0
   17.0641  -11.4946   -1.9722 H   0  0  0  1  0  0  0  0  0  0  0  0
   18.8347  -12.6931   -1.9360 C   0  0  0  1  0  0  0  0  0  0  0  0
   18.6731  -12.9761   -0.9168 H   0  0  0  1  0  0  0  0  0  0  0  0
   20.2325  -12.5078   -2.1634 O   0  0  0  1  0  0  0  0  0  0  0  0
   20.4516  -11.5777   -2.0717 H   0  0  0  1  0  0  0  0  0  0  0  0
   18.3657  -13.3589   -4.3108 C   0  0  0  1  0  0  0  0  0  0  0  0
   19.3849  -13.2639   -4.6223 H   0  0  0  1  0  0  0  0  0  0  0  0
   17.7113  -14.3420   -5.1142 O   0  0  0  1  0  0  0  0  0  0  0  0
   16.7601  -14.2451   -5.0277 H   0  0  0  1  0  0  0  0  0  0  0  0
   18.3214  -13.7899   -2.8464 C   0  0  0  1  0  0  0  0  0  0  0  0
   18.9300  -14.6609   -2.7207 H   0  0  0  1  0  0  0  0  0  0  0  0
   17.6584  -12.0168   -4.4766 C   0  0  0  1  0  0  0  0  0  0  0  0
   16.6208  -12.1349   -4.2436 H   0  0  0  1  0  0  0  0  0  0  0  0
   17.8035  -11.5546   -5.8980 C   0  0  0  1  0  0  0  0  0  0  0  0
   17.4865  -12.3337   -6.5594 H   0  0  0  1  0  0  0  0  0  0  0  0
   18.8285  -11.3167   -6.0917 H   0  0  0  1  0  0  0  0  0  0  0  0
   17.0022  -10.3998   -6.1099 O   0  0  0  1  0  0  0  0  0  0  0  0
   16.3018  -10.3709   -5.4540 H   0  0  0  1  0  0  0  0  0  0  0  0
   18.2246  -11.0435   -3.6085 O   0  0  0  1  0  0  0  0  0  0  0  0
   16.9720  -14.0958   -2.4918 O   0  0  0  1  0  0  0  0  0  0  0  0
   16.9153  -15.0106   -2.2063 H   0  0  0  1  0  0  0  0  0  0  0  0
  1  2  1  0  0  0  0
  1  3  1  0  0  0  0
  1  4  1  0  0  0  0
  1  5  1  0  0  0  0
  3  7  1  0  0  0  0
  3  8  1  0  0  0  0
  4 10  1  0  0  0  0
  5  6  1  0  0  0  0
  5 12  1  0  0  0  0
  5 14  1  0  0  0  0
  7 16  1  0  0  0  0
  7 18  2  0  0  0  0
  8  9  1  0  0  0  0
  8 19  2  0  0  0  0
 10 11  1  0  0  0  0
 10 12  1  0  0  0  0
 10 21  1  0  0  0  0
 12 13  1  0  0  0  0
 12 24  1  0  0  0  0
 14 15  1  0  0  0  0
 16 17  1  0  0  0  0
 16 26  1  0  0  0  0
 19 20  1  0  0  0  0
 19 26  1  0  0  0  0
 21 22  1  0  0  0  0
 21 23  1  0  0  0  0
 21 27  1  0  0  0  0
 24 25  1  0  0  0  0
 26 28  2  0  0  0  0
 27 29  1  0  0  0  0
 29 30  1  0  0  0  0
 29 31  1  0  0  0  0
 29 32  2  0  0  0  0
 30 33  1  0  0  0  0
 33 34  1  0  0  0  0
 33 35  2  0  0  0  0
 33 36  1  0  0  0  0
 36 37  1  0  0  0  0
 37 38  1  0  0  0  0
 37 39  1  0  0  0  0
 37 56  1  0  0  0  0
 39 40  1  0  0  0  0
 39 41  1  0  0  0  0
 39 47  1  0  0  0  0
 41 42  1  0  0  0  0
 43 44  1  0  0  0  0
 43 45  1  0  0  0  0
 43 47  1  0  0  0  0
 43 49  1  0  0  0  0
 45 46  1  0  0  0  0
 47 48  1  0  0  0  0
 47 57  1  0  0  0  0
 49 50  1  0  0  0  0
 49 51  1  0  0  0  0
 49 56  1  0  0  0  0
 51 52  1  0  0  0  0
 51 53  1  0  0  0  0
 51 54  1  0  0  0  0
 54 55  1  0  0  0  0
 57 58  1  0  0  0  0
M  BCL ATM C_TeTeTeTe H_S N_TrTrTrPi2 O_Te2Te2TeTe C_TeTeTeTe H_S C_TrTrTrPi C_TrTrTrPi H_S C_TeTeTeTe H_S C_TeTeTeTe H_S O_Te2Te2TeTe H_S N_TrTrTrPi2 H_S O_Tr2Tr2TrPi C_TrTrTrPi H_S C_TeTeTeTe H_S H_S O_Te2Te2TeTe H_S C_TrTrTrPi O_Tr2TrTrPi2 O_Tr2Tr2TrPi P_TeTeTeTePi O_Tr2TrTrPi2 O_Te2Te2TeTe O_Tr2Tr2TrPi P_TeTeTeTePi O_Te2Te2TeTe O_Tr2Tr2TrPi O_Tr2TrTrPi2 C_TeTeTeTe H_S C_TeTeTeTe H_S O_Te2Te2TeTe H_S C_TeTeTeTe H_S O_Te2Te2TeTe H_S C_TeTeTeTe H_S C_TeTeTeTe H_S C_TeTeTeTe H_S H_S O_Te2Te2TeTe H_S O_Te2Te2TeTe O_Te2Te2TeTe H_S
M  BCL BND NonConjugatedSingleBond NonConjugatedSingleBond NonConjugatedSingleBondInRing NonConjugatedSingleBondInRing ConjugatedSingleBondInRing ConjugatedSingleBondInRing NonConjugatedSingleBondInRing NonConjugatedSingleBond NonConjugatedSingleBondInRing NonConjugatedSingleBond ConjugatedSingleBondInRing ConjugatedDoubleBond NonConjugatedSingleBond ConjugatedDoubleBondInRing NonConjugatedSingleBond NonConjugatedSingleBondInRing NonConjugatedSingleBond NonConjugatedSingleBond NonConjugatedSingleBond NonConjugatedSingleBond NonConjugatedSingleBond ConjugatedSingleBondInRing NonConjugatedSingleBond ConjugatedSingleBondInRing NonConjugatedSingleBond NonConjugatedSingleBond NonConjugatedSingleBond NonConjugatedSingleBond ConjugatedDoubleBond ConjugatedSingleBond ConjugatedSingleBond ConjugatedSingleBond ConjugatedDoubleBond ConjugatedSingleBond ConjugatedSingleBond ConjugatedDoubleBond ConjugatedSingleBond NonConjugatedSingleBond NonConjugatedSingleBond NonConjugatedSingleBondInRing NonConjugatedSingleBondInRing NonConjugatedSingleBond NonConjugatedSingleBond NonConjugatedSingleBondInRing NonConjugatedSingleBond NonConjugatedSingleBond NonConjugatedSingleBond NonConjugatedSingleBondInRing NonConjugatedSingleBondInRing NonConjugatedSingleBond NonConjugatedSingleBond NonConjugatedSingleBond NonConjugatedSingleBond NonConjugatedSingleBond NonConjugatedSingleBondInRing NonConjugatedSingleBond NonConjugatedSingleBond NonConjugatedSingleBond NonConjugatedSingleBond NonConjugatedSingleBond
M  BCL CHI   1   S   5   S  10   S  12   R  29   S  33   R  37   S  39   R  43   R  47   R  49   S
M  BCL DBI - Z - - -
M  END
> <ConfClashScore>
0 

> <ConfOneFourInteractionScore>
-0.968587 

> <ConfScore>
-0.0103907 

> <ConfScorePBest>
0.00881549 

> <ConfTolerance>
1.95713 

$$$$
ChEBI.****
  PyMOL2.5          3D                             0

 58 60  0  0  0  0  0  0  0  0999 V2000
   14.3743  -11.1895    3.2776 C   0  0  0  1  0  0  0  0  0  0  0  0
   14.7445  -12.1858    3.1538 H   0  0  0  1  0  0  0  0  0  0  0  0
   12.9972  -11.2378    3.7761 N   0  0  0  1  0  0  0  0  0  0  0  0
   15.2167  -10.4446    4.1857 O   0  0  0  1  0  0  0  0  0  0  0  0
   14.4402  -10.4231    1.9533 C   0  0  0  1  0  0  0  0  0  0  0  0
   15.1701  -10.8508    1.2982 H   0  0  0  1  0  0  0  0  0  0  0  0
   12.5119  -10.1787    4.5207 C   0  0  0  1  0  0  0  0  0  0  0  0
   12.2161  -12.3394    3.4907 C   0  0  0  1  0  0  0  0  0  0  0  0
   12.6353  -13.1154    2.9396 H   0  0  0  1  0  0  0  0  0  0  0  0
   15.7649   -9.3063    3.5783 C   0  0  0  1  0  0  0  0  0  0  0  0
   15.7607   -8.4768    4.2541 H   0  0  0  1  0  0  0  0  0  0  0  0
   14.8438   -9.0360    2.3797 C   0  0  0  1  0  0  0  0  0  0  0  0
   15.3682   -8.5291    1.5968 H   0  0  0  1  0  0  0  0  0  0  0  0
   13.1668  -10.4097    1.3049 O   0  0  0  1  0  0  0  0  0  0  0  0
   13.1867  -10.9992    0.5474 H   0  0  0  1  0  0  0  0  0  0  0  0
   11.1922  -10.2850    4.9200 N   0  0  0  1  0  0  0  0  0  0  0  0
   10.8170   -9.5369    5.4298 H   0  0  0  1  0  0  0  0  0  0  0  0
   13.2022   -9.2143    4.8066 O   0  0  0  1  0  0  0  0  0  0  0  0
   10.9461  -12.4549    3.8898 C   0  0  0  1  0  0  0  0  0  0  0  0
   10.3945  -13.3050    3.6561 H   0  0  0  1  0  0  0  0  0  0  0  0
   17.1621   -9.5710    3.1225 C   0  0  0  1  0  0  0  0  0  0  0  0
   17.1544  -10.2641    2.3074 H   0  0  0  1  0  0  0  0  0  0  0  0
   17.7382   -9.9745    3.9289 H   0  0  0  1  0  0  0  0  0  0  0  0
   13.7059   -8.2652    2.7683 O   0  0  0  1  0  0  0  0  0  0  0  0
   13.9975   -7.4447    3.1724 H   0  0  0  1  0  0  0  0  0  0  0  0
   10.3452  -11.3705    4.6584 C   0  0  0  1  0  0  0  0  0  0  0  0
   17.7302   -8.3114    2.6930 O   0  0  0  1  0  0  0  0  0  0  0  0
    9.1870  -11.4059    5.0461 O   0  0  0  1  0  0  0  0  0  0  0  0
   19.1916   -8.2413    2.1138 P   0  0  0  1  0  0  0  0  0  0  0  0
   19.0384   -8.6883    0.5658 O   0  0  0  1  0  0  0  0  0  0  0  0
   19.5378   -6.7862    2.1628 O   0  0  0  0  0  0  0  0  0  0  0  0
   20.0958   -9.2478    2.7112 O   0  0  0  1  0  0  0  0  0  0  0  0
   18.1948   -9.9283    0.1413 P   0  0  0  1  0  0  0  0  0  0  0  0
   18.3524  -11.1486    0.9679 O   0  0  0  0  0  0  0  0  0  0  0  0
   16.7840   -9.4481    0.1565 O   0  0  0  1  0  0  0  0  0  0  0  0
   18.6379  -10.2857   -1.3178 O   0  0  0  1  0  0  0  0  0  0  0  0
   18.0713  -11.3520   -2.1325 C   0  0  0  1  0  0  0  0  0  0  0  0
   17.0373  -11.4777   -1.8874 H   0  0  0  1  0  0  0  0  0  0  0  0
   18.8213  -12.6564   -1.8549 C   0  0  0  1  0  0  0  0  0  0  0  0
   18.6623  -12.9451   -0.8369 H   0  0  0  1  0  0  0  0  0  0  0  0
   20.2171  -12.4546   -2.0809 O   0  0  0  1  0  0  0  0  0  0  0  0
   20.4116  -12.5755   -3.0132 H   0  0  0  1  0  0  0  0  0  0  0  0
   18.3610  -13.3182   -4.2326 C   0  0  0  1  0  0  0  0  0  0  0  0
   19.3793  -13.2106   -4.5431 H   0  0  0  1  0  0  0  0  0  0  0  0
   17.7173  -14.3065   -5.0410 O   0  0  0  1  0  0  0  0  0  0  0  0
   17.5485  -15.0911   -4.5143 H   0  0  0  1  0  0  0  0  0  0  0  0
   18.3208  -13.7553   -2.7699 C   0  0  0  1  0  0  0  0  0  0  0  0
   18.9391  -14.6199   -2.6472 H   0  0  0  1  0  0  0  0  0  0  0  0
   17.6388  -11.9835   -4.3936 C   0  0  0  1  0  0  0  0  0  0  0  0
   16.6024  -12.1141   -4.1616 H   0  0  0  1  0  0  0  0  0  0  0  0
   17.7794  -11.5141   -5.8133 C   0  0  0  1  0  0  0  0  0  0  0  0
   18.1032  -12.3226   -6.4349 H   0  0  0  1  0  0  0  0  0  0  0  0
   18.4906  -10.7164   -5.8655 H   0  0  0  1  0  0  0  0  0  0  0  0
   16.5034  -11.0551   -6.2396 O   0  0  0  1  0  0  0  0  0  0  0  0
   16.6144  -10.3459   -6.8769 H   0  0  0  1  0  0  0  0  0  0  0  0
   18.1936  -11.0072   -3.5213 O   0  0  0  1  0  0  0  0  0  0  0  0
   16.9748  -14.0778   -2.4172 O   0  0  0  1  0  0  0  0  0  0  0  0
   16.3777  -13.7393   -3.0885 H   0  0  0  1  0  0  0  0  0  0  0  0
  1  2  1  0  0  0  0
  1  3  1  0  0  0  0
  1  4  1  0  0  0  0
  1  5  1  0  0  0  0
  3  7  1  0  0  0  0
  3  8  1  0  0  0  0
  4 10  1  0  0  0  0
  5  6  1  0  0  0  0
  5 12  1  0  0  0  0
  5 14  1  0  0  0  0
  7 16  1  0  0  0  0
  7 18  2  0  0  0  0
  8  9  1  0  0  0  0
  8 19  2  0  0  0  0
 10 11  1  0  0  0  0
 10 12  1  0  0  0  0
 10 21  1  0  0  0  0
 12 13  1  0  0  0  0
 12 24  1  0  0  0  0
 14 15  1  0  0  0  0
 16 17  1  0  0  0  0
 16 26  1  0  0  0  0
 19 20  1  0  0  0  0
 19 26  1  0  0  0  0
 21 22  1  0  0  0  0
 21 23  1  0  0  0  0
 21 27  1  0  0  0  0
 24 25  1  0  0  0  0
 26 28  2  0  0  0  0
 27 29  1  0  0  0  0
 29 30  1  0  0  0  0
 29 31  1  0  0  0  0
 29 32  2  0  0  0  0
 30 33  1  0  0  0  0
 33 34  1  0  0  0  0
 33 35  2  0  0  0  0
 33 36  1  0  0  0  0
 36 37  1  0  0  0  0
 37 38  1  0  0  0  0
 37 39  1  0  0  0  0
 37 56  1  0  0  0  0
 39 40  1  0  0  0  0
 39 41  1  0  0  0  0
 39 47  1  0  0  0  0
 41 42  1  0  0  0  0
 43 44  1  0  0  0  0
 43 45  1  0  0  0  0
 43 47  1  0  0  0  0
 43 49  1  0  0  0  0
 45 46  1  0  0  0  0
 47 48  1  0  0  0  0
 47 57  1  0  0  0  0
 49 50  1  0  0  0  0
 49 51  1  0  0  0  0
 49 56  1  0  0  0  0
 51 52  1  0  0  0  0
 51 53  1  0  0  0  0
 51 54  1  0  0  0  0
 54 55  1  0  0  0  0
 57 58  1  0  0  0  0
M  BCL ATM C_TeTeTeTe H_S N_TrTrTrPi2 O_Te2Te2TeTe C_TeTeTeTe H_S C_TrTrTrPi C_TrTrTrPi H_S C_TeTeTeTe H_S C_TeTeTeTe H_S O_Te2Te2TeTe H_S N_TrTrTrPi2 H_S O_Tr2Tr2TrPi C_TrTrTrPi H_S C_TeTeTeTe H_S H_S O_Te2Te2TeTe H_S C_TrTrTrPi O_Tr2TrTrPi2 O_Tr2Tr2TrPi P_TeTeTeTePi O_Tr2TrTrPi2 O_Te2Te2TeTe O_Tr2Tr2TrPi P_TeTeTeTePi O_Te2Te2TeTe O_Tr2Tr2TrPi O_Tr2TrTrPi2 C_TeTeTeTe H_S C_TeTeTeTe H_S O_Te2Te2TeTe H_S C_TeTeTeTe H_S O_Te2Te2TeTe H_S C_TeTeTeTe H_S C_TeTeTeTe H_S C_TeTeTeTe H_S H_S O_Te2Te2TeTe H_S O_Te2Te2TeTe O_Te2Te2TeTe H_S
M  BCL BND NonConjugatedSingleBond NonConjugatedSingleBond NonConjugatedSingleBondInRing NonConjugatedSingleBondInRing ConjugatedSingleBondInRing ConjugatedSingleBondInRing NonConjugatedSingleBondInRing NonConjugatedSingleBond NonConjugatedSingleBondInRing NonConjugatedSingleBond ConjugatedSingleBondInRing ConjugatedDoubleBond NonConjugatedSingleBond ConjugatedDoubleBondInRing NonConjugatedSingleBond NonConjugatedSingleBondInRing NonConjugatedSingleBond NonConjugatedSingleBond NonConjugatedSingleBond NonConjugatedSingleBond NonConjugatedSingleBond ConjugatedSingleBondInRing NonConjugatedSingleBond ConjugatedSingleBondInRing NonConjugatedSingleBond NonConjugatedSingleBond NonConjugatedSingleBond NonConjugatedSingleBond ConjugatedDoubleBond ConjugatedSingleBond ConjugatedSingleBond ConjugatedSingleBond ConjugatedDoubleBond ConjugatedSingleBond ConjugatedSingleBond ConjugatedDoubleBond ConjugatedSingleBond NonConjugatedSingleBond NonConjugatedSingleBond NonConjugatedSingleBondInRing NonConjugatedSingleBondInRing NonConjugatedSingleBond NonConjugatedSingleBond NonConjugatedSingleBondInRing NonConjugatedSingleBond NonConjugatedSingleBond NonConjugatedSingleBond NonConjugatedSingleBondInRing NonConjugatedSingleBondInRing NonConjugatedSingleBond NonConjugatedSingleBond NonConjugatedSingleBond NonConjugatedSingleBond NonConjugatedSingleBond NonConjugatedSingleBondInRing NonConjugatedSingleBond NonConjugatedSingleBond NonConjugatedSingleBond NonConjugatedSingleBond NonConjugatedSingleBond
M  BCL CHI   1   S   5   S  10   S  12   R  29   S  33   R  37   S  39   R  43   R  47   R  49   S
M  BCL DBI - Z - - -
M  END
> <ConfClashScore>
0 

> <ConfOneFourInteractionScore>
-0.97399 

> <ConfScore>
-0.00305113 

> <ConfScorePBest>
0.00871249 

> <ConfTolerance>
1.89565 

$$$$
ChEBI.****
  PyMOL2.5          3D                             0

 58 60  0  0  0  0  0  0  0  0999 V2000
   15.3018   -7.8812    3.2844 C   0  0  0  1  0  0  0  0  0  0  0  0
   14.7765   -6.9516    3.3532 H   0  0  0  1  0  0  0  0  0  0  0  0
   15.5336   -8.4162    4.6368 N   0  0  0  1  0  0  0  0  0  0  0  0
   14.5549   -8.8329    2.4785 O   0  0  0  1  0  0  0  0  0  0  0  0
   16.6259   -7.6977    2.5440 C   0  0  0  1  0  0  0  0  0  0  0  0
   16.5568   -6.9262    1.8059 H   0  0  0  1  0  0  0  0  0  0  0  0
   15.7298   -7.5332    5.6734 C   0  0  0  1  0  0  0  0  0  0  0  0
   15.5459   -9.7921    4.8178 C   0  0  0  1  0  0  0  0  0  0  0  0
   15.4033  -10.4356    4.0134 H   0  0  0  1  0  0  0  0  0  0  0  0
   15.3905   -9.4098    1.4972 C   0  0  0  1  0  0  0  0  0  0  0  0
   15.2643  -10.4721    1.4765 H   0  0  0  1  0  0  0  0  0  0  0  0
   16.8071   -9.0521    1.9086 C   0  0  0  1  0  0  0  0  0  0  0  0
   17.4550   -8.9975    1.0588 H   0  0  0  1  0  0  0  0  0  0  0  0
   17.6912   -7.3991    3.4475 O   0  0  0  1  0  0  0  0  0  0  0  0
   18.0447   -6.5288    3.2496 H   0  0  0  1  0  0  0  0  0  0  0  0
   15.9634   -8.0690    6.9160 N   0  0  0  1  0  0  0  0  0  0  0  0
   16.1039   -7.4529    7.6651 H   0  0  0  1  0  0  0  0  0  0  0  0
   15.6976   -6.3266    5.4964 O   0  0  0  1  0  0  0  0  0  0  0  0
   15.7495  -10.2816    6.0760 C   0  0  0  1  0  0  0  0  0  0  0  0
   15.7091  -11.3096    6.2281 H   0  0  0  1  0  0  0  0  0  0  0  0
   15.0801   -8.8446    0.1502 C   0  0  0  1  0  0  0  0  0  0  0  0
   14.7595   -7.8283    0.2465 H   0  0  0  1  0  0  0  0  0  0  0  0
   14.3085   -9.4198   -0.3173 H   0  0  0  1  0  0  0  0  0  0  0  0
   17.3280   -9.9977    2.8459 O   0  0  0  1  0  0  0  0  0  0  0  0
   17.0055  -10.8754    2.6284 H   0  0  0  1  0  0  0  0  0  0  0  0
   16.0124   -9.4406    7.1748 C   0  0  0  1  0  0  0  0  0  0  0  0
   16.2896   -8.9068   -0.6417 O   0  0  0  1  0  0  0  0  0  0  0  0
   16.2669   -9.8825    8.2832 O   0  0  0  1  0  0  0  0  0  0  0  0
   16.2471   -8.6675   -2.2392 P   0  0  0  1  0  0  0  0  0  0  0  0
   17.7783   -8.3513   -2.6087 O   0  0  0  1  0  0  0  0  0  0  0  0
   15.8815   -9.9297   -2.9196 O   0  0  0  0  0  0  0  0  0  0  0  0
   15.4021   -7.4717   -2.4466 O   0  0  0  1  0  0  0  0  0  0  0  0
   19.0913   -8.9056   -2.0925 P   0  0  0  1  0  0  0  0  0  0  0  0
   20.1332   -9.1477   -3.1556 O   0  0  0  0  0  0  0  0  0  0  0  0
   19.4973   -8.0815   -0.9484 O   0  0  0  1  0  0  0  0  0  0  0  0
   18.6135  -10.2610   -1.4516 O   0  0  0  1  0  0  0  0  0  0  0  0
   18.0616  -11.3602   -2.2319 C   0  0  0  1  0  0  0  0  0  0  0  0
   17.0445  -11.5269   -1.9444 H   0  0  0  1  0  0  0  0  0  0  0  0
   18.8775  -12.6281   -1.9711 C   0  0  0  1  0  0  0  0  0  0  0  0
   18.7715  -12.9110   -0.9446 H   0  0  0  1  0  0  0  0  0  0  0  0
   20.2533  -12.3696   -2.2548 O   0  0  0  1  0  0  0  0  0  0  0  0
   20.7778  -12.5246   -1.4658 H   0  0  0  1  0  0  0  0  0  0  0  0
   18.3526  -13.3374   -4.3215 C   0  0  0  1  0  0  0  0  0  0  0  0
   19.3522  -13.1902   -4.6736 H   0  0  0  1  0  0  0  0  0  0  0  0
   17.7214  -14.3608   -5.0925 O   0  0  0  1  0  0  0  0  0  0  0  0
   17.0504  -14.7950   -4.5606 H   0  0  0  1  0  0  0  0  0  0  0  0
   18.3891  -13.7582   -2.8539 C   0  0  0  1  0  0  0  0  0  0  0  0
   19.0484  -14.5941   -2.7471 H   0  0  0  1  0  0  0  0  0  0  0  0
   17.5677  -12.0368   -4.4672 C   0  0  0  1  0  0  0  0  0  0  0  0
   16.5480  -12.2086   -4.1927 H   0  0  0  1  0  0  0  0  0  0  0  0
   17.6319  -11.5783   -5.8982 C   0  0  0  1  0  0  0  0  0  0  0  0
   17.1189  -10.6430   -5.9824 H   0  0  0  1  0  0  0  0  0  0  0  0
   17.1487  -12.3075   -6.5143 H   0  0  0  1  0  0  0  0  0  0  0  0
   18.9675  -11.4085   -6.3544 O   0  0  0  1  0  0  0  0  0  0  0  0
   19.3865  -10.6988   -5.8622 H   0  0  0  1  0  0  0  0  0  0  0  0
   18.1140  -11.0273   -3.6280 O   0  0  0  1  0  0  0  0  0  0  0  0
   17.0732  -14.1335   -2.4444 O   0  0  0  1  0  0  0  0  0  0  0  0
   16.4425  -13.8828   -3.1234 H   0  0  0  1  0  0  0  0  0  0  0  0
  1  2  1  0  0  0  0
  1  3  1  0  0  0  0
  1  4  1  0  0  0  0
  1  5  1  0  0  0  0
  3  7  1  0  0  0  0
  3  8  1  0  0  0  0
  4 10  1  0  0  0  0
  5  6  1  0  0  0  0
  5 12  1  0  0  0  0
  5 14  1  0  0  0  0
  7 16  1  0  0  0  0
  7 18  2  0  0  0  0
  8  9  1  0  0  0  0
  8 19  2  0  0  0  0
 10 11  1  0  0  0  0
 10 12  1  0  0  0  0
 10 21  1  0  0  0  0
 12 13  1  0  0  0  0
 12 24  1  0  0  0  0
 14 15  1  0  0  0  0
 16 17  1  0  0  0  0
 16 26  1  0  0  0  0
 19 20  1  0  0  0  0
 19 26  1  0  0  0  0
 21 22  1  0  0  0  0
 21 23  1  0  0  0  0
 21 27  1  0  0  0  0
 24 25  1  0  0  0  0
 26 28  2  0  0  0  0
 27 29  1  0  0  0  0
 29 30  1  0  0  0  0
 29 31  1  0  0  0  0
 29 32  2  0  0  0  0
 30 33  1  0  0  0  0
 33 34  1  0  0  0  0
 33 35  2  0  0  0  0
 33 36  1  0  0  0  0
 36 37  1  0  0  0  0
 37 38  1  0  0  0  0
 37 39  1  0  0  0  0
 37 56  1  0  0  0  0
 39 40  1  0  0  0  0
 39 41  1  0  0  0  0
 39 47  1  0  0  0  0
 41 42  1  0  0  0  0
 43 44  1  0  0  0  0
 43 45  1  0  0  0  0
 43 47  1  0  0  0  0
 43 49  1  0  0  0  0
 45 46  1  0  0  0  0
 47 48  1  0  0  0  0
 47 57  1  0  0  0  0
 49 50  1  0  0  0  0
 49 51  1  0  0  0  0
 49 56  1  0  0  0  0
 51 52  1  0  0  0  0
 51 53  1  0  0  0  0
 51 54  1  0  0  0  0
 54 55  1  0  0  0  0
 57 58  1  0  0  0  0
M  BCL ATM C_TeTeTeTe H_S N_TrTrTrPi2 O_Te2Te2TeTe C_TeTeTeTe H_S C_TrTrTrPi C_TrTrTrPi H_S C_TeTeTeTe H_S C_TeTeTeTe H_S O_Te2Te2TeTe H_S N_TrTrTrPi2 H_S O_Tr2Tr2TrPi C_TrTrTrPi H_S C_TeTeTeTe H_S H_S O_Te2Te2TeTe H_S C_TrTrTrPi O_Tr2TrTrPi2 O_Tr2Tr2TrPi P_TeTeTeTePi O_Tr2TrTrPi2 O_Te2Te2TeTe O_Tr2Tr2TrPi P_TeTeTeTePi O_Te2Te2TeTe O_Tr2Tr2TrPi O_Tr2TrTrPi2 C_TeTeTeTe H_S C_TeTeTeTe H_S O_Te2Te2TeTe H_S C_TeTeTeTe H_S O_Te2Te2TeTe H_S C_TeTeTeTe H_S C_TeTeTeTe H_S C_TeTeTeTe H_S H_S O_Te2Te2TeTe H_S O_Te2Te2TeTe O_Te2Te2TeTe H_S
M  BCL BND NonConjugatedSingleBond NonConjugatedSingleBond NonConjugatedSingleBondInRing NonConjugatedSingleBondInRing ConjugatedSingleBondInRing ConjugatedSingleBondInRing NonConjugatedSingleBondInRing NonConjugatedSingleBond NonConjugatedSingleBondInRing NonConjugatedSingleBond ConjugatedSingleBondInRing ConjugatedDoubleBond NonConjugatedSingleBond ConjugatedDoubleBondInRing NonConjugatedSingleBond NonConjugatedSingleBondInRing NonConjugatedSingleBond NonConjugatedSingleBond NonConjugatedSingleBond NonConjugatedSingleBond NonConjugatedSingleBond ConjugatedSingleBondInRing NonConjugatedSingleBond ConjugatedSingleBondInRing NonConjugatedSingleBond NonConjugatedSingleBond NonConjugatedSingleBond NonConjugatedSingleBond ConjugatedDoubleBond ConjugatedSingleBond ConjugatedSingleBond ConjugatedSingleBond ConjugatedDoubleBond ConjugatedSingleBond ConjugatedSingleBond ConjugatedDoubleBond ConjugatedSingleBond NonConjugatedSingleBond NonConjugatedSingleBond NonConjugatedSingleBondInRing NonConjugatedSingleBondInRing NonConjugatedSingleBond NonConjugatedSingleBond NonConjugatedSingleBondInRing NonConjugatedSingleBond NonConjugatedSingleBond NonConjugatedSingleBond NonConjugatedSingleBondInRing NonConjugatedSingleBondInRing NonConjugatedSingleBond NonConjugatedSingleBond NonConjugatedSingleBond NonConjugatedSingleBond NonConjugatedSingleBond NonConjugatedSingleBondInRing NonConjugatedSingleBond NonConjugatedSingleBond NonConjugatedSingleBond NonConjugatedSingleBond NonConjugatedSingleBond
M  BCL CHI   1   S   5   S  10   S  12   R  29   S  33   R  37   S  39   R  43   R  47   R  49   S
M  BCL DBI - Z - - -
M  END
> <ConfClashScore>
0 

> <ConfOneFourInteractionScore>
-0.971853 

> <ConfScore>
0.00794552 

> <ConfScorePBest>
0.00860949 

> <ConfTolerance>
1.70588 

$$$$
ChEBI.****
  PyMOL2.5          3D                             0

 58 60  0  0  0  0  0  0  0  0999 V2000
   23.1921   -3.7704   -2.6640 C   0  0  0  1  0  0  0  0  0  0  0  0
   23.7890   -4.3133   -3.3668 H   0  0  0  1  0  0  0  0  0  0  0  0
   23.0007   -2.3953   -3.1425 N   0  0  0  1  0  0  0  0  0  0  0  0
   21.9167   -4.4226   -2.4709 O   0  0  0  1  0  0  0  0  0  0  0  0
   23.8537   -3.7718   -1.2826 C   0  0  0  1  0  0  0  0  0  0  0  0
   24.5258   -4.5980   -1.1799 H   0  0  0  1  0  0  0  0  0  0  0  0
   21.7454   -1.8287   -3.0955 C   0  0  0  1  0  0  0  0  0  0  0  0
   24.0763   -1.6923   -3.6306 C   0  0  0  1  0  0  0  0  0  0  0  0
   25.0067   -2.1567   -3.6486 H   0  0  0  1  0  0  0  0  0  0  0  0
   21.7158   -4.7965   -1.1349 C   0  0  0  1  0  0  0  0  0  0  0  0
   20.7042   -4.6136   -0.8381 H   0  0  0  1  0  0  0  0  0  0  0  0
   22.6844   -3.9065   -0.3428 C   0  0  0  1  0  0  0  0  0  0  0  0
   22.9778   -4.3755    0.5732 H   0  0  0  1  0  0  0  0  0  0  0  0
   24.5541   -2.5601   -1.0528 O   0  0  0  1  0  0  0  0  0  0  0  0
   25.4839   -2.6837   -1.2573 H   0  0  0  1  0  0  0  0  0  0  0  0
   21.6545   -0.5399   -3.5623 N   0  0  0  1  0  0  0  0  0  0  0  0
   20.7692   -0.1205   -3.5367 H   0  0  0  1  0  0  0  0  0  0  0  0
   20.7764   -2.4332   -2.6666 O   0  0  0  1  0  0  0  0  0  0  0  0
   23.9781   -0.4183   -4.0903 C   0  0  0  1  0  0  0  0  0  0  0  0
   24.8136    0.0838   -4.4529 H   0  0  0  1  0  0  0  0  0  0  0  0
   22.0367   -6.2233   -0.9375 C   0  0  0  1  0  0  0  0  0  0  0  0
   23.0941   -6.3331   -0.8166 H   0  0  0  1  0  0  0  0  0  0  0  0
   21.7155   -6.7784   -1.7941 H   0  0  0  1  0  0  0  0  0  0  0  0
   22.1083   -2.6499   -0.0647 O   0  0  0  1  0  0  0  0  0  0  0  0
   21.1515   -2.7263   -0.0768 H   0  0  0  1  0  0  0  0  0  0  0  0
   22.6889    0.2187   -4.0628 C   0  0  0  1  0  0  0  0  0  0  0  0
   21.3669   -6.7336    0.2395 O   0  0  0  1  0  0  0  0  0  0  0  0
   22.5219    1.3624   -4.4592 O   0  0  0  1  0  0  0  0  0  0  0  0
   20.4957   -8.0882    0.1726 P   0  0  0  1  0  0  0  0  0  0  0  0
   19.7323   -7.9403   -1.2332 O   0  0  0  1  0  0  0  0  0  0  0  0
   21.3213   -9.3341    0.0965 O   0  0  0  0  0  0  0  0  0  0  0  0
   19.4912   -8.1198    1.2185 O   0  0  0  1  0  0  0  0  0  0  0  0
   19.3473   -9.0084   -2.3840 P   0  0  0  1  0  0  0  0  0  0  0  0
   18.3903   -8.3036   -3.2699 O   0  0  0  0  0  0  0  0  0  0  0  0
   20.5320   -9.6210   -2.9562 O   0  0  0  1  0  0  0  0  0  0  0  0
   18.6546  -10.1890   -1.6078 O   0  0  0  1  0  0  0  0  0  0  0  0
   18.0672  -11.2920   -2.3166 C   0  0  0  1  0  0  0  0  0  0  0  0
   17.0431  -11.3989   -2.0253 H   0  0  0  1  0  0  0  0  0  0  0  0
   18.8280  -12.5758   -1.9789 C   0  0  0  1  0  0  0  0  0  0  0  0
   18.7072  -12.7943   -0.9385 H   0  0  0  1  0  0  0  0  0  0  0  0
   20.2143  -12.3922   -2.2698 O   0  0  0  1  0  0  0  0  0  0  0  0
   20.7361  -12.6104   -1.4941 H   0  0  0  1  0  0  0  0  0  0  0  0
   18.2802  -13.3970   -4.2873 C   0  0  0  1  0  0  0  0  0  0  0  0
   19.2862  -13.3125   -4.6420 H   0  0  0  1  0  0  0  0  0  0  0  0
   17.6081  -14.4363   -5.0018 O   0  0  0  1  0  0  0  0  0  0  0  0
   17.2484  -14.0829   -5.8187 H   0  0  0  1  0  0  0  0  0  0  0  0
   18.2947  -13.7335   -2.7978 C   0  0  0  1  0  0  0  0  0  0  0  0
   18.9179  -14.5888   -2.6396 H   0  0  0  1  0  0  0  0  0  0  0  0
   17.5514  -12.0751   -4.5118 C   0  0  0  1  0  0  0  0  0  0  0  0
   16.5245  -12.1878   -4.2331 H   0  0  0  1  0  0  0  0  0  0  0  0
   17.6388  -11.7037   -5.9642 C   0  0  0  1  0  0  0  0  0  0  0  0
   17.1235  -10.7801   -6.1267 H   0  0  0  1  0  0  0  0  0  0  0  0
   17.1881  -12.4730   -6.5557 H   0  0  0  1  0  0  0  0  0  0  0  0
   19.0020  -11.5566   -6.3394 O   0  0  0  1  0  0  0  0  0  0  0  0
   19.0598  -11.4136   -7.2870 H   0  0  0  1  0  0  0  0  0  0  0  0
   18.1375  -11.0427   -3.7292 O   0  0  0  1  0  0  0  0  0  0  0  0
   16.9630  -14.0289   -2.3742 O   0  0  0  1  0  0  0  0  0  0  0  0
   16.9901  -14.6427   -1.6366 H   0  0  0  1  0  0  0  0  0  0  0  0
  1  2  1  0  0  0  0
  1  3  1  0  0  0  0
  1  4  1  0  0  0  0
  1  5  1  0  0  0  0
  3  7  1  0  0  0  0
  3  8  1  0  0  0  0
  4 10  1  0  0  0  0
  5  6  1  0  0  0  0
  5 12  1  0  0  0  0
  5 14  1  0  0  0  0
  7 16  1  0  0  0  0
  7 18  2  0  0  0  0
  8  9  1  0  0  0  0
  8 19  2  0  0  0  0
 10 11  1  0  0  0  0
 10 12  1  0  0  0  0
 10 21  1  0  0  0  0
 12 13  1  0  0  0  0
 12 24  1  0  0  0  0
 14 15  1  0  0  0  0
 16 17  1  0  0  0  0
 16 26  1  0  0  0  0
 19 20  1  0  0  0  0
 19 26  1  0  0  0  0
 21 22  1  0  0  0  0
 21 23  1  0  0  0  0
 21 27  1  0  0  0  0
 24 25  1  0  0  0  0
 26 28  2  0  0  0  0
 27 29  1  0  0  0  0
 29 30  1  0  0  0  0
 29 31  1  0  0  0  0
 29 32  2  0  0  0  0
 30 33  1  0  0  0  0
 33 34  1  0  0  0  0
 33 35  2  0  0  0  0
 33 36  1  0  0  0  0
 36 37  1  0  0  0  0
 37 38  1  0  0  0  0
 37 39  1  0  0  0  0
 37 56  1  0  0  0  0
 39 40  1  0  0  0  0
 39 41  1  0  0  0  0
 39 47  1  0  0  0  0
 41 42  1  0  0  0  0
 43 44  1  0  0  0  0
 43 45  1  0  0  0  0
 43 47  1  0  0  0  0
 43 49  1  0  0  0  0
 45 46  1  0  0  0  0
 47 48  1  0  0  0  0
 47 57  1  0  0  0  0
 49 50  1  0  0  0  0
 49 51  1  0  0  0  0
 49 56  1  0  0  0  0
 51 52  1  0  0  0  0
 51 53  1  0  0  0  0
 51 54  1  0  0  0  0
 54 55  1  0  0  0  0
 57 58  1  0  0  0  0
M  BCL ATM C_TeTeTeTe H_S N_TrTrTrPi2 O_Te2Te2TeTe C_TeTeTeTe H_S C_TrTrTrPi C_TrTrTrPi H_S C_TeTeTeTe H_S C_TeTeTeTe H_S O_Te2Te2TeTe H_S N_TrTrTrPi2 H_S O_Tr2Tr2TrPi C_TrTrTrPi H_S C_TeTeTeTe H_S H_S O_Te2Te2TeTe H_S C_TrTrTrPi O_Tr2TrTrPi2 O_Tr2Tr2TrPi P_TeTeTeTePi O_Tr2TrTrPi2 O_Te2Te2TeTe O_Tr2Tr2TrPi P_TeTeTeTePi O_Te2Te2TeTe O_Tr2Tr2TrPi O_Tr2TrTrPi2 C_TeTeTeTe H_S C_TeTeTeTe H_S O_Te2Te2TeTe H_S C_TeTeTeTe H_S O_Te2Te2TeTe H_S C_TeTeTeTe H_S C_TeTeTeTe H_S C_TeTeTeTe H_S H_S O_Te2Te2TeTe H_S O_Te2Te2TeTe O_Te2Te2TeTe H_S
M  BCL BND NonConjugatedSingleBond NonConjugatedSingleBond NonConjugatedSingleBondInRing NonConjugatedSingleBondInRing ConjugatedSingleBondInRing ConjugatedSingleBondInRing NonConjugatedSingleBondInRing NonConjugatedSingleBond NonConjugatedSingleBondInRing NonConjugatedSingleBond ConjugatedSingleBondInRing ConjugatedDoubleBond NonConjugatedSingleBond ConjugatedDoubleBondInRing NonConjugatedSingleBond NonConjugatedSingleBondInRing NonConjugatedSingleBond NonConjugatedSingleBond NonConjugatedSingleBond NonConjugatedSingleBond NonConjugatedSingleBond ConjugatedSingleBondInRing NonConjugatedSingleBond ConjugatedSingleBondInRing NonConjugatedSingleBond NonConjugatedSingleBond NonConjugatedSingleBond NonConjugatedSingleBond ConjugatedDoubleBond ConjugatedSingleBond ConjugatedSingleBond ConjugatedSingleBond ConjugatedDoubleBond ConjugatedSingleBond ConjugatedSingleBond ConjugatedDoubleBond ConjugatedSingleBond NonConjugatedSingleBond NonConjugatedSingleBond NonConjugatedSingleBondInRing NonConjugatedSingleBondInRing NonConjugatedSingleBond NonConjugatedSingleBond NonConjugatedSingleBondInRing NonConjugatedSingleBond NonConjugatedSingleBond NonConjugatedSingleBond NonConjugatedSingleBondInRing NonConjugatedSingleBondInRing NonConjugatedSingleBond NonConjugatedSingleBond NonConjugatedSingleBond NonConjugatedSingleBond NonConjugatedSingleBond NonConjugatedSingleBondInRing NonConjugatedSingleBond NonConjugatedSingleBond NonConjugatedSingleBond NonConjugatedSingleBond NonConjugatedSingleBond
M  BCL CHI   1   S   5   S  10   S  12   R  29   S  33   R  37   S  39   R  43   R  47   R  49   S
M  BCL DBI - Z - - -
M  END
> <ConfClashScore>
0 

> <ConfOneFourInteractionScore>
-0.960786 

> <ConfScore>
0.00841439 

> <ConfScorePBest>
0.00850649 

> <ConfTolerance>
1.71061 

$$$$
ChEBI.****
  PyMOL2.5          3D                             0

 58 60  0  0  0  0  0  0  0  0999 V2000
   19.3269   -9.7720    6.9129 C   0  0  0  1  0  0  0  0  0  0  0  0
   18.2814   -9.9211    7.0849 H   0  0  0  1  0  0  0  0  0  0  0  0
   20.0995  -10.7590    7.6905 N   0  0  0  1  0  0  0  0  0  0  0  0
   19.6094   -9.9099    5.5565 O   0  0  0  1  0  0  0  0  0  0  0  0
   19.7296   -8.3437    7.3286 C   0  0  0  1  0  0  0  0  0  0  0  0
   19.0963   -7.9732    8.1074 H   0  0  0  1  0  0  0  0  0  0  0  0
   19.4411  -11.5335    8.6176 C   0  0  0  1  0  0  0  0  0  0  0  0
   21.4633  -10.8717    7.4595 C   0  0  0  1  0  0  0  0  0  0  0  0
   21.9357  -10.2663    6.7581 H   0  0  0  1  0  0  0  0  0  0  0  0
   19.7921   -8.6097    4.9408 C   0  0  0  1  0  0  0  0  0  0  0  0
   20.7926   -8.5143    4.5737 H   0  0  0  1  0  0  0  0  0  0  0  0
   19.5268   -7.5591    6.0260 C   0  0  0  1  0  0  0  0  0  0  0  0
   18.5285   -7.1803    5.9576 H   0  0  0  1  0  0  0  0  0  0  0  0
   21.0913   -8.2935    7.7570 O   0  0  0  1  0  0  0  0  0  0  0  0
   21.6691   -8.4567    7.0079 H   0  0  0  1  0  0  0  0  0  0  0  0
   20.1967  -12.4265    9.3369 N   0  0  0  1  0  0  0  0  0  0  0  0
   19.7420  -12.9862   10.0004 H   0  0  0  1  0  0  0  0  0  0  0  0
   18.2382  -11.4313    8.7932 O   0  0  0  1  0  0  0  0  0  0  0  0
   22.1707  -11.7953    8.1741 C   0  0  0  1  0  0  0  0  0  0  0  0
   23.1828  -11.9210    7.9703 H   0  0  0  1  0  0  0  0  0  0  0  0
   18.8401   -8.4385    3.8263 C   0  0  0  1  0  0  0  0  0  0  0  0
   18.9496   -7.4559    3.4172 H   0  0  0  1  0  0  0  0  0  0  0  0
   17.8426   -8.5638    4.1926 H   0  0  0  1  0  0  0  0  0  0  0  0
   20.4548   -6.4775    5.9297 O   0  0  0  1  0  0  0  0  0  0  0  0
   20.2830   -5.9783    5.1279 H   0  0  0  1  0  0  0  0  0  0  0  0
   21.5754  -12.5837    9.1780 C   0  0  0  1  0  0  0  0  0  0  0  0
   19.0938   -9.4167    2.7906 O   0  0  0  1  0  0  0  0  0  0  0  0
   22.2234  -13.3555    9.8658 O   0  0  0  1  0  0  0  0  0  0  0  0
   18.0130  -10.5138    2.4292 P   0  0  0  1  0  0  0  0  0  0  0  0
   18.2619  -10.6909    0.8406 O   0  0  0  1  0  0  0  0  0  0  0  0
   18.3100  -11.8015    3.1027 O   0  0  0  0  0  0  0  0  0  0  0  0
   16.7024   -9.8977    2.6394 O   0  0  0  1  0  0  0  0  0  0  0  0
   17.9927   -9.6230   -0.2009 P   0  0  0  1  0  0  0  0  0  0  0  0
   16.5348   -9.2929   -0.4009 O   0  0  0  0  0  0  0  0  0  0  0  0
   18.8899   -8.4970    0.0814 O   0  0  0  1  0  0  0  0  0  0  0  0
   18.5994  -10.2971   -1.4851 O   0  0  0  1  0  0  0  0  0  0  0  0
   18.0504  -11.3461   -2.2823 C   0  0  0  1  0  0  0  0  0  0  0  0
   17.0223  -11.4907   -2.0235 H   0  0  0  1  0  0  0  0  0  0  0  0
   18.8261  -12.6394   -2.0241 C   0  0  0  1  0  0  0  0  0  0  0  0
   18.6865  -12.9373   -1.0059 H   0  0  0  1  0  0  0  0  0  0  0  0
   20.2149  -12.4126   -2.2685 O   0  0  0  1  0  0  0  0  0  0  0  0
   20.6908  -12.4101   -1.4347 H   0  0  0  1  0  0  0  0  0  0  0  0
   18.3430  -13.2936   -4.3993 C   0  0  0  1  0  0  0  0  0  0  0  0
   19.3548  -13.1669   -4.7235 H   0  0  0  1  0  0  0  0  0  0  0  0
   17.7053  -14.2864   -5.2042 O   0  0  0  1  0  0  0  0  0  0  0  0
   16.8716  -14.5390   -4.8007 H   0  0  0  1  0  0  0  0  0  0  0  0
   18.3311  -13.7407   -2.9391 C   0  0  0  1  0  0  0  0  0  0  0  0
   18.9655  -14.5955   -2.8309 H   0  0  0  1  0  0  0  0  0  0  0  0
   17.5963  -11.9703   -4.5412 C   0  0  0  1  0  0  0  0  0  0  0  0
   16.5657  -12.1199   -4.2954 H   0  0  0  1  0  0  0  0  0  0  0  0
   17.7089  -11.4889   -5.9616 C   0  0  0  1  0  0  0  0  0  0  0  0
   18.7013  -11.6821   -6.3119 H   0  0  0  1  0  0  0  0  0  0  0  0
   17.5213  -10.4357   -5.9830 H   0  0  0  1  0  0  0  0  0  0  0  0
   16.7862  -12.1338   -6.8276 O   0  0  0  1  0  0  0  0  0  0  0  0
   15.9829  -11.6114   -6.8863 H   0  0  0  1  0  0  0  0  0  0  0  0
   18.1471  -10.9904   -3.6704 O   0  0  0  1  0  0  0  0  0  0  0  0
   16.9958  -14.0881   -2.5695 O   0  0  0  1  0  0  0  0  0  0  0  0
   17.0157  -14.6714   -1.8073 H   0  0  0  1  0  0  0  0  0  0  0  0
  1  2  1  0  0  0  0
  1  3  1  0  0  0  0
  1  4  1  0  0  0  0
  1  5  1  0  0  0  0
  3  7  1  0  0  0  0
  3  8  1  0  0  0  0
  4 10  1  0  0  0  0
  5  6  1  0  0  0  0
  5 12  1  0  0  0  0
  5 14  1  0  0  0  0
  7 16  1  0  0  0  0
  7 18  2  0  0  0  0
  8  9  1  0  0  0  0
  8 19  2  0  0  0  0
 10 11  1  0  0  0  0
 10 12  1  0  0  0  0
 10 21  1  0  0  0  0
 12 13  1  0  0  0  0
 12 24  1  0  0  0  0
 14 15  1  0  0  0  0
 16 17  1  0  0  0  0
 16 26  1  0  0  0  0
 19 20  1  0  0  0  0
 19 26  1  0  0  0  0
 21 22  1  0  0  0  0
 21 23  1  0  0  0  0
 21 27  1  0  0  0  0
 24 25  1  0  0  0  0
 26 28  2  0  0  0  0
 27 29  1  0  0  0  0
 29 30  1  0  0  0  0
 29 31  1  0  0  0  0
 29 32  2  0  0  0  0
 30 33  1  0  0  0  0
 33 34  1  0  0  0  0
 33 35  2  0  0  0  0
 33 36  1  0  0  0  0
 36 37  1  0  0  0  0
 37 38  1  0  0  0  0
 37 39  1  0  0  0  0
 37 56  1  0  0  0  0
 39 40  1  0  0  0  0
 39 41  1  0  0  0  0
 39 47  1  0  0  0  0
 41 42  1  0  0  0  0
 43 44  1  0  0  0  0
 43 45  1  0  0  0  0
 43 47  1  0  0  0  0
 43 49  1  0  0  0  0
 45 46  1  0  0  0  0
 47 48  1  0  0  0  0
 47 57  1  0  0  0  0
 49 50  1  0  0  0  0
 49 51  1  0  0  0  0
 49 56  1  0  0  0  0
 51 52  1  0  0  0  0
 51 53  1  0  0  0  0
 51 54  1  0  0  0  0
 54 55  1  0  0  0  0
 57 58  1  0  0  0  0
M  BCL ATM C_TeTeTeTe H_S N_TrTrTrPi2 O_Te2Te2TeTe C_TeTeTeTe H_S C_TrTrTrPi C_TrTrTrPi H_S C_TeTeTeTe H_S C_TeTeTeTe H_S O_Te2Te2TeTe H_S N_TrTrTrPi2 H_S O_Tr2Tr2TrPi C_TrTrTrPi H_S C_TeTeTeTe H_S H_S O_Te2Te2TeTe H_S C_TrTrTrPi O_Tr2TrTrPi2 O_Tr2Tr2TrPi P_TeTeTeTePi O_Tr2TrTrPi2 O_Te2Te2TeTe O_Tr2Tr2TrPi P_TeTeTeTePi O_Te2Te2TeTe O_Tr2Tr2TrPi O_Tr2TrTrPi2 C_TeTeTeTe H_S C_TeTeTeTe H_S O_Te2Te2TeTe H_S C_TeTeTeTe H_S O_Te2Te2TeTe H_S C_TeTeTeTe H_S C_TeTeTeTe H_S C_TeTeTeTe H_S H_S O_Te2Te2TeTe H_S O_Te2Te2TeTe O_Te2Te2TeTe H_S
M  BCL BND NonConjugatedSingleBond NonConjugatedSingleBond NonConjugatedSingleBondInRing NonConjugatedSingleBondInRing ConjugatedSingleBondInRing ConjugatedSingleBondInRing NonConjugatedSingleBondInRing NonConjugatedSingleBond NonConjugatedSingleBondInRing NonConjugatedSingleBond ConjugatedSingleBondInRing ConjugatedDoubleBond NonConjugatedSingleBond ConjugatedDoubleBondInRing NonConjugatedSingleBond NonConjugatedSingleBondInRing NonConjugatedSingleBond NonConjugatedSingleBond NonConjugatedSingleBond NonConjugatedSingleBond NonConjugatedSingleBond ConjugatedSingleBondInRing NonConjugatedSingleBond ConjugatedSingleBondInRing NonConjugatedSingleBond NonConjugatedSingleBond NonConjugatedSingleBond NonConjugatedSingleBond ConjugatedDoubleBond ConjugatedSingleBond ConjugatedSingleBond ConjugatedSingleBond ConjugatedDoubleBond ConjugatedSingleBond ConjugatedSingleBond ConjugatedDoubleBond ConjugatedSingleBond NonConjugatedSingleBond NonConjugatedSingleBond NonConjugatedSingleBondInRing NonConjugatedSingleBondInRing NonConjugatedSingleBond NonConjugatedSingleBond NonConjugatedSingleBondInRing NonConjugatedSingleBond NonConjugatedSingleBond NonConjugatedSingleBond NonConjugatedSingleBondInRing NonConjugatedSingleBondInRing NonConjugatedSingleBond NonConjugatedSingleBond NonConjugatedSingleBond NonConjugatedSingleBond NonConjugatedSingleBond NonConjugatedSingleBondInRing NonConjugatedSingleBond NonConjugatedSingleBond NonConjugatedSingleBond NonConjugatedSingleBond NonConjugatedSingleBond
M  BCL CHI   1   S   5   S  10   S  12   R  29   S  33   R  37   S  39   R  43   R  47   R  49   S
M  BCL DBI - Z - - -
M  END
> <ConfClashScore>
0 

> <ConfOneFourInteractionScore>
-0.968473 

> <ConfScore>
0.00884482 

> <ConfScorePBest>
0.00840348 

> <ConfTolerance>
1.93524 

$$$$
ChEBI.****
  PyMOL2.5          3D                             0

 58 60  0  0  0  0  0  0  0  0999 V2000
   20.5117   -4.5998    2.9550 C   0  0  0  1  0  0  0  0  0  0  0  0
   19.5697   -4.1047    2.8437 H   0  0  0  1  0  0  0  0  0  0  0  0
   21.4962   -3.6607    3.4781 N   0  0  0  1  0  0  0  0  0  0  0  0
   20.3855   -5.7123    3.8155 O   0  0  0  1  0  0  0  0  0  0  0  0
   20.9736   -5.1658    1.6244 C   0  0  0  1  0  0  0  0  0  0  0  0
   20.1433   -5.4889    1.0319 H   0  0  0  1  0  0  0  0  0  0  0  0
   22.4033   -4.0975    4.3968 C   0  0  0  1  0  0  0  0  0  0  0  0
   21.4816   -2.3594    3.0293 C   0  0  0  1  0  0  0  0  0  0  0  0
   20.7651   -2.0663    2.3349 H   0  0  0  1  0  0  0  0  0  0  0  0
   21.0326   -6.8777    3.2354 C   0  0  0  1  0  0  0  0  0  0  0  0
   21.6856   -7.3391    3.9465 H   0  0  0  1  0  0  0  0  0  0  0  0
   21.8272   -6.3328    2.0494 C   0  0  0  1  0  0  0  0  0  0  0  0
   21.9113   -7.0597    1.2687 H   0  0  0  1  0  0  0  0  0  0  0  0
   21.7375   -4.2064    0.8919 O   0  0  0  1  0  0  0  0  0  0  0  0
   22.3879   -3.8041    1.4722 H   0  0  0  1  0  0  0  0  0  0  0  0
   23.3002   -3.1716    4.8333 N   0  0  0  1  0  0  0  0  0  0  0  0
   23.9573   -3.4691    5.4967 H   0  0  0  1  0  0  0  0  0  0  0  0
   22.4107   -5.2479    4.8030 O   0  0  0  1  0  0  0  0  0  0  0  0
   22.3732   -1.4655    3.4709 C   0  0  0  1  0  0  0  0  0  0  0  0
   22.3431   -0.4872    3.1191 H   0  0  0  1  0  0  0  0  0  0  0  0
   20.0154   -7.8697    2.7758 C   0  0  0  1  0  0  0  0  0  0  0  0
   19.2490   -7.3737    2.2175 H   0  0  0  1  0  0  0  0  0  0  0  0
   19.5801   -8.3629    3.6197 H   0  0  0  1  0  0  0  0  0  0  0  0
   23.1313   -5.9071    2.4471 O   0  0  0  1  0  0  0  0  0  0  0  0
   23.5363   -6.5841    2.9942 H   0  0  0  1  0  0  0  0  0  0  0  0
   23.3726   -1.8507    4.4294 C   0  0  0  1  0  0  0  0  0  0  0  0
   20.6911   -8.8346    1.9355 O   0  0  0  1  0  0  0  0  0  0  0  0
   24.2154   -1.0763    4.8520 O   0  0  0  1  0  0  0  0  0  0  0  0
   20.3213  -10.3604    1.9114 P   0  0  0  1  0  0  0  0  0  0  0  0
   19.3869  -10.6396    0.6347 O   0  0  0  1  0  0  0  0  0  0  0  0
   21.6604  -11.0838    1.7397 O   0  0  0  0  0  0  0  0  0  0  0  0
   19.5698  -10.7824    3.1164 O   0  0  0  1  0  0  0  0  0  0  0  0
   18.2001   -9.8023   -0.0412 P   0  0  0  1  0  0  0  0  0  0  0  0
   16.9370  -10.4687    0.4061 O   0  0  0  0  0  0  0  0  0  0  0  0
   18.3009   -8.3396    0.2430 O   0  0  0  1  0  0  0  0  0  0  0  0
   18.5122  -10.1045   -1.5501 O   0  0  0  1  0  0  0  0  0  0  0  0
   18.0132  -11.2622   -2.2389 C   0  0  0  1  0  0  0  0  0  0  0  0
   16.9872  -11.4180   -1.9786 H   0  0  0  1  0  0  0  0  0  0  0  0
   18.8326  -12.4883   -1.8311 C   0  0  0  1  0  0  0  0  0  0  0  0
   18.6874  -12.6788   -0.7882 H   0  0  0  1  0  0  0  0  0  0  0  0
   20.2158  -12.2351   -2.0815 O   0  0  0  1  0  0  0  0  0  0  0  0
   20.5595  -12.8999   -2.6827 H   0  0  0  1  0  0  0  0  0  0  0  0
   18.4142  -13.4156   -4.1263 C   0  0  0  1  0  0  0  0  0  0  0  0
   19.4257  -13.2853   -4.4498 H   0  0  0  1  0  0  0  0  0  0  0  0
   17.8273  -14.5150   -4.8260 O   0  0  0  1  0  0  0  0  0  0  0  0
   17.0441  -14.2158   -5.2936 H   0  0  0  1  0  0  0  0  0  0  0  0
   18.3947  -13.7012   -2.6262 C   0  0  0  1  0  0  0  0  0  0  0  0
   19.0589  -14.5136   -2.4172 H   0  0  0  1  0  0  0  0  0  0  0  0
   17.6206  -12.1459   -4.4214 C   0  0  0  1  0  0  0  0  0  0  0  0
   16.5924  -12.3081   -4.1736 H   0  0  0  1  0  0  0  0  0  0  0  0
   17.7385  -11.8183   -5.8824 C   0  0  0  1  0  0  0  0  0  0  0  0
   17.4096  -12.6553   -6.4622 H   0  0  0  1  0  0  0  0  0  0  0  0
   18.7596  -11.6006   -6.1168 H   0  0  0  1  0  0  0  0  0  0  0  0
   16.9326  -10.6874   -6.1860 O   0  0  0  1  0  0  0  0  0  0  0  0
   16.0575  -10.8073   -5.8099 H   0  0  0  1  0  0  0  0  0  0  0  0
   18.1196  -11.0562   -3.6563 O   0  0  0  1  0  0  0  0  0  0  0  0
   17.0675  -14.0584   -2.2375 O   0  0  0  1  0  0  0  0  0  0  0  0
   16.5799  -14.3642   -3.0058 H   0  0  0  1  0  0  0  0  0  0  0  0
  1  2  1  0  0  0  0
  1  3  1  0  0  0  0
  1  4  1  0  0  0  0
  1  5  1  0  0  0  0
  3  7  1  0  0  0  0
  3  8  1  0  0  0  0
  4 10  1  0  0  0  0
  5  6  1  0  0  0  0
  5 12  1  0  0  0  0
  5 14  1  0  0  0  0
  7 16  1  0  0  0  0
  7 18  2  0  0  0  0
  8  9  1  0  0  0  0
  8 19  2  0  0  0  0
 10 11  1  0  0  0  0
 10 12  1  0  0  0  0
 10 21  1  0  0  0  0
 12 13  1  0  0  0  0
 12 24  1  0  0  0  0
 14 15  1  0  0  0  0
 16 17  1  0  0  0  0
 16 26  1  0  0  0  0
 19 20  1  0  0  0  0
 19 26  1  0  0  0  0
 21 22  1  0  0  0  0
 21 23  1  0  0  0  0
 21 27  1  0  0  0  0
 24 25  1  0  0  0  0
 26 28  2  0  0  0  0
 27 29  1  0  0  0  0
 29 30  1  0  0  0  0
 29 31  1  0  0  0  0
 29 32  2  0  0  0  0
 30 33  1  0  0  0  0
 33 34  1  0  0  0  0
 33 35  2  0  0  0  0
 33 36  1  0  0  0  0
 36 37  1  0  0  0  0
 37 38  1  0  0  0  0
 37 39  1  0  0  0  0
 37 56  1  0  0  0  0
 39 40  1  0  0  0  0
 39 41  1  0  0  0  0
 39 47  1  0  0  0  0
 41 42  1  0  0  0  0
 43 44  1  0  0  0  0
 43 45  1  0  0  0  0
 43 47  1  0  0  0  0
 43 49  1  0  0  0  0
 45 46  1  0  0  0  0
 47 48  1  0  0  0  0
 47 57  1  0  0  0  0
 49 50  1  0  0  0  0
 49 51  1  0  0  0  0
 49 56  1  0  0  0  0
 51 52  1  0  0  0  0
 51 53  1  0  0  0  0
 51 54  1  0  0  0  0
 54 55  1  0  0  0  0
 57 58  1  0  0  0  0
M  BCL ATM C_TeTeTeTe H_S N_TrTrTrPi2 O_Te2Te2TeTe C_TeTeTeTe H_S C_TrTrTrPi C_TrTrTrPi H_S C_TeTeTeTe H_S C_TeTeTeTe H_S O_Te2Te2TeTe H_S N_TrTrTrPi2 H_S O_Tr2Tr2TrPi C_TrTrTrPi H_S C_TeTeTeTe H_S H_S O_Te2Te2TeTe H_S C_TrTrTrPi O_Tr2TrTrPi2 O_Tr2Tr2TrPi P_TeTeTeTePi O_Tr2TrTrPi2 O_Te2Te2TeTe O_Tr2Tr2TrPi P_TeTeTeTePi O_Te2Te2TeTe O_Tr2Tr2TrPi O_Tr2TrTrPi2 C_TeTeTeTe H_S C_TeTeTeTe H_S O_Te2Te2TeTe H_S C_TeTeTeTe H_S O_Te2Te2TeTe H_S C_TeTeTeTe H_S C_TeTeTeTe H_S C_TeTeTeTe H_S H_S O_Te2Te2TeTe H_S O_Te2Te2TeTe O_Te2Te2TeTe H_S
M  BCL BND NonConjugatedSingleBond NonConjugatedSingleBond NonConjugatedSingleBondInRing NonConjugatedSingleBondInRing ConjugatedSingleBondInRing ConjugatedSingleBondInRing NonConjugatedSingleBondInRing NonConjugatedSingleBond NonConjugatedSingleBondInRing NonConjugatedSingleBond ConjugatedSingleBondInRing ConjugatedDoubleBond NonConjugatedSingleBond ConjugatedDoubleBondInRing NonConjugatedSingleBond NonConjugatedSingleBondInRing NonConjugatedSingleBond NonConjugatedSingleBond NonConjugatedSingleBond NonConjugatedSingleBond NonConjugatedSingleBond ConjugatedSingleBondInRing NonConjugatedSingleBond ConjugatedSingleBondInRing NonConjugatedSingleBond NonConjugatedSingleBond NonConjugatedSingleBond NonConjugatedSingleBond ConjugatedDoubleBond ConjugatedSingleBond ConjugatedSingleBond ConjugatedSingleBond ConjugatedDoubleBond ConjugatedSingleBond ConjugatedSingleBond ConjugatedDoubleBond ConjugatedSingleBond NonConjugatedSingleBond NonConjugatedSingleBond NonConjugatedSingleBondInRing NonConjugatedSingleBondInRing NonConjugatedSingleBond NonConjugatedSingleBond NonConjugatedSingleBondInRing NonConjugatedSingleBond NonConjugatedSingleBond NonConjugatedSingleBond NonConjugatedSingleBondInRing NonConjugatedSingleBondInRing NonConjugatedSingleBond NonConjugatedSingleBond NonConjugatedSingleBond NonConjugatedSingleBond NonConjugatedSingleBond NonConjugatedSingleBondInRing NonConjugatedSingleBond NonConjugatedSingleBond NonConjugatedSingleBond NonConjugatedSingleBond NonConjugatedSingleBond
M  BCL CHI   1   S   5   S  10   S  12   R  29   S  33   R  37   S  39   R  43   R  47   R  49   S
M  BCL DBI - Z - - -
M  END
> <ConfClashScore>
0 

> <ConfOneFourInteractionScore>
-0.976289 

> <ConfScore>
0.0118628 

> <ConfScorePBest>
0.00830048 

> <ConfTolerance>
1.84532 

$$$$
ChEBI.****
  PyMOL2.5          3D                             0

 58 60  0  0  0  0  0  0  0  0999 V2000
   12.2020  -11.8285   -2.6312 C   0  0  0  1  0  0  0  0  0  0  0  0
   11.5682  -11.3238   -1.9323 H   0  0  0  1  0  0  0  0  0  0  0  0
   11.5793  -13.0932   -3.0315 N   0  0  0  1  0  0  0  0  0  0  0  0
   12.4368  -11.0032   -3.7779 O   0  0  0  1  0  0  0  0  0  0  0  0
   13.5784  -12.0840   -2.0142 C   0  0  0  1  0  0  0  0  0  0  0  0
   13.8369  -11.3272   -1.3034 H   0  0  0  1  0  0  0  0  0  0  0  0
   10.8870  -13.8219   -2.0953 C   0  0  0  1  0  0  0  0  0  0  0  0
   11.7041  -13.5147   -4.3275 C   0  0  0  1  0  0  0  0  0  0  0  0
   12.2679  -12.9372   -4.9834 H   0  0  0  1  0  0  0  0  0  0  0  0
   13.8327  -11.0305   -4.1284 C   0  0  0  1  0  0  0  0  0  0  0  0
   13.9506  -11.3189   -5.1520 H   0  0  0  1  0  0  0  0  0  0  0  0
   14.4664  -12.0182   -3.2481 C   0  0  0  1  0  0  0  0  0  0  0  0
   15.4543  -11.7043   -2.9825 H   0  0  0  1  0  0  0  0  0  0  0  0
   13.6430  -13.3669   -1.3895 O   0  0  0  1  0  0  0  0  0  0  0  0
   14.5013  -13.4781   -0.9741 H   0  0  0  1  0  0  0  0  0  0  0  0
   10.3027  -14.9955   -2.5544 N   0  0  0  1  0  0  0  0  0  0  0  0
    9.8042  -15.5397   -1.9096 H   0  0  0  1  0  0  0  0  0  0  0  0
   10.7913  -13.4611   -0.9338 O   0  0  0  1  0  0  0  0  0  0  0  0
   11.1326  -14.6408   -4.7949 C   0  0  0  1  0  0  0  0  0  0  0  0
   11.2329  -14.9173   -5.7924 H   0  0  0  1  0  0  0  0  0  0  0  0
   14.4362   -9.7003   -3.9187 C   0  0  0  1  0  0  0  0  0  0  0  0
   13.6877   -8.9482   -4.0561 H   0  0  0  1  0  0  0  0  0  0  0  0
   15.2234   -9.5548   -4.6286 H   0  0  0  1  0  0  0  0  0  0  0  0
   14.5275  -13.2932   -3.8890 O   0  0  0  1  0  0  0  0  0  0  0  0
   15.4448  -13.5319   -4.0409 H   0  0  0  1  0  0  0  0  0  0  0  0
   10.3770  -15.4531   -3.8716 C   0  0  0  1  0  0  0  0  0  0  0  0
   14.9763   -9.5960   -2.5803 O   0  0  0  1  0  0  0  0  0  0  0  0
    9.8314  -16.4859   -4.2238 O   0  0  0  1  0  0  0  0  0  0  0  0
   15.4894   -8.1409   -2.0568 P   0  0  0  1  0  0  0  0  0  0  0  0
   17.0305   -8.6301   -2.0048 O   0  0  0  1  0  0  0  0  0  0  0  0
   15.3155   -7.1228   -3.1225 O   0  0  0  0  0  0  0  0  0  0  0  0
   14.9776   -7.8724   -0.7009 O   0  0  0  1  0  0  0  0  0  0  0  0
   17.7333   -9.3335   -0.7269 P   0  0  0  1  0  0  0  0  0  0  0  0
   18.6723   -8.4090   -0.0443 O   0  0  0  0  0  0  0  0  0  0  0  0
   16.6134   -9.9005    0.0612 O   0  0  0  1  0  0  0  0  0  0  0  0
   18.6535  -10.4520   -1.3420 O   0  0  0  1  0  0  0  0  0  0  0  0
   18.0943  -11.5008   -2.1744 C   0  0  0  1  0  0  0  0  0  0  0  0
   17.0754  -11.6725   -1.8964 H   0  0  0  1  0  0  0  0  0  0  0  0
   18.8981  -12.7879   -1.9782 C   0  0  0  1  0  0  0  0  0  0  0  0
   18.7885  -13.1217   -0.9675 H   0  0  0  1  0  0  0  0  0  0  0  0
   20.2766  -12.5281   -2.2476 O   0  0  0  1  0  0  0  0  0  0  0  0
   20.5976  -11.8492   -1.6495 H   0  0  0  1  0  0  0  0  0  0  0  0
   18.3690  -13.3715   -4.3619 C   0  0  0  1  0  0  0  0  0  0  0  0
   19.3703  -13.2159   -4.7056 H   0  0  0  1  0  0  0  0  0  0  0  0
   17.7291  -14.3484   -5.1844 O   0  0  0  1  0  0  0  0  0  0  0  0
   16.8023  -14.4131   -4.9429 H   0  0  0  1  0  0  0  0  0  0  0  0
   18.4001  -13.8669   -2.9177 C   0  0  0  1  0  0  0  0  0  0  0  0
   19.0516  -14.7133   -2.8533 H   0  0  0  1  0  0  0  0  0  0  0  0
   17.5964  -12.0579   -4.4416 C   0  0  0  1  0  0  0  0  0  0  0  0
   16.5748  -12.2341   -4.1767 H   0  0  0  1  0  0  0  0  0  0  0  0
   17.6661  -11.5286   -5.8451 C   0  0  0  1  0  0  0  0  0  0  0  0
   17.3016  -10.5228   -5.8644 H   0  0  0  1  0  0  0  0  0  0  0  0
   17.0644  -12.1389   -6.4857 H   0  0  0  1  0  0  0  0  0  0  0  0
   19.0130  -11.5517   -6.2991 O   0  0  0  1  0  0  0  0  0  0  0  0
   19.5946  -11.7657   -5.5659 H   0  0  0  1  0  0  0  0  0  0  0  0
   18.1512  -11.0977   -3.5517 O   0  0  0  1  0  0  0  0  0  0  0  0
   17.0804  -14.2504   -2.5285 O   0  0  0  1  0  0  0  0  0  0  0  0
   16.5159  -13.4744   -2.5023 H   0  0  0  1  0  0  0  0  0  0  0  0
  1  2  1  0  0  0  0
  1  3  1  0  0  0  0
  1  4  1  0  0  0  0
  1  5  1  0  0  0  0
  3  7  1  0  0  0  0
  3  8  1  0  0  0  0
  4 10  1  0  0  0  0
  5  6  1  0  0  0  0
  5 12  1  0  0  0  0
  5 14  1  0  0  0  0
  7 16  1  0  0  0  0
  7 18  2  0  0  0  0
  8  9  1  0  0  0  0
  8 19  2  0  0  0  0
 10 11  1  0  0  0  0
 10 12  1  0  0  0  0
 10 21  1  0  0  0  0
 12 13  1  0  0  0  0
 12 24  1  0  0  0  0
 14 15  1  0  0  0  0
 16 17  1  0  0  0  0
 16 26  1  0  0  0  0
 19 20  1  0  0  0  0
 19 26  1  0  0  0  0
 21 22  1  0  0  0  0
 21 23  1  0  0  0  0
 21 27  1  0  0  0  0
 24 25  1  0  0  0  0
 26 28  2  0  0  0  0
 27 29  1  0  0  0  0
 29 30  1  0  0  0  0
 29 31  1  0  0  0  0
 29 32  2  0  0  0  0
 30 33  1  0  0  0  0
 33 34  1  0  0  0  0
 33 35  2  0  0  0  0
 33 36  1  0  0  0  0
 36 37  1  0  0  0  0
 37 38  1  0  0  0  0
 37 39  1  0  0  0  0
 37 56  1  0  0  0  0
 39 40  1  0  0  0  0
 39 41  1  0  0  0  0
 39 47  1  0  0  0  0
 41 42  1  0  0  0  0
 43 44  1  0  0  0  0
 43 45  1  0  0  0  0
 43 47  1  0  0  0  0
 43 49  1  0  0  0  0
 45 46  1  0  0  0  0
 47 48  1  0  0  0  0
 47 57  1  0  0  0  0
 49 50  1  0  0  0  0
 49 51  1  0  0  0  0
 49 56  1  0  0  0  0
 51 52  1  0  0  0  0
 51 53  1  0  0  0  0
 51 54  1  0  0  0  0
 54 55  1  0  0  0  0
 57 58  1  0  0  0  0
M  BCL ATM C_TeTeTeTe H_S N_TrTrTrPi2 O_Te2Te2TeTe C_TeTeTeTe H_S C_TrTrTrPi C_TrTrTrPi H_S C_TeTeTeTe H_S C_TeTeTeTe H_S O_Te2Te2TeTe H_S N_TrTrTrPi2 H_S O_Tr2Tr2TrPi C_TrTrTrPi H_S C_TeTeTeTe H_S H_S O_Te2Te2TeTe H_S C_TrTrTrPi O_Tr2TrTrPi2 O_Tr2Tr2TrPi P_TeTeTeTePi O_Tr2TrTrPi2 O_Te2Te2TeTe O_Tr2Tr2TrPi P_TeTeTeTePi O_Te2Te2TeTe O_Tr2Tr2TrPi O_Tr2TrTrPi2 C_TeTeTeTe H_S C_TeTeTeTe H_S O_Te2Te2TeTe H_S C_TeTeTeTe H_S O_Te2Te2TeTe H_S C_TeTeTeTe H_S C_TeTeTeTe H_S C_TeTeTeTe H_S H_S O_Te2Te2TeTe H_S O_Te2Te2TeTe O_Te2Te2TeTe H_S
M  BCL BND NonConjugatedSingleBond NonConjugatedSingleBond NonConjugatedSingleBondInRing NonConjugatedSingleBondInRing ConjugatedSingleBondInRing ConjugatedSingleBondInRing NonConjugatedSingleBondInRing NonConjugatedSingleBond NonConjugatedSingleBondInRing NonConjugatedSingleBond ConjugatedSingleBondInRing ConjugatedDoubleBond NonConjugatedSingleBond ConjugatedDoubleBondInRing NonConjugatedSingleBond NonConjugatedSingleBondInRing NonConjugatedSingleBond NonConjugatedSingleBond NonConjugatedSingleBond NonConjugatedSingleBond NonConjugatedSingleBond ConjugatedSingleBondInRing NonConjugatedSingleBond ConjugatedSingleBondInRing NonConjugatedSingleBond NonConjugatedSingleBond NonConjugatedSingleBond NonConjugatedSingleBond ConjugatedDoubleBond ConjugatedSingleBond ConjugatedSingleBond ConjugatedSingleBond ConjugatedDoubleBond ConjugatedSingleBond ConjugatedSingleBond ConjugatedDoubleBond ConjugatedSingleBond NonConjugatedSingleBond NonConjugatedSingleBond NonConjugatedSingleBondInRing NonConjugatedSingleBondInRing NonConjugatedSingleBond NonConjugatedSingleBond NonConjugatedSingleBondInRing NonConjugatedSingleBond NonConjugatedSingleBond NonConjugatedSingleBond NonConjugatedSingleBondInRing NonConjugatedSingleBondInRing NonConjugatedSingleBond NonConjugatedSingleBond NonConjugatedSingleBond NonConjugatedSingleBond NonConjugatedSingleBond NonConjugatedSingleBondInRing NonConjugatedSingleBond NonConjugatedSingleBond NonConjugatedSingleBond NonConjugatedSingleBond NonConjugatedSingleBond
M  BCL CHI   1   S   5   S  10   S  12   R  29   S  33   R  37   S  39   R  43   R  47   R  49   S
M  BCL DBI - Z - - -
M  END
> <ConfClashScore>
0 

> <ConfOneFourInteractionScore>
-0.971644 

> <ConfScore>
0.0123282 

> <ConfScorePBest>
0.00819748 

> <ConfTolerance>
1.83971 

$$$$
ChEBI.****
  PyMOL2.5          3D                             0

 58 60  0  0  0  0  0  0  0  0999 V2000
   14.0785  -16.1593   -0.1286 C   0  0  0  1  0  0  0  0  0  0  0  0
   13.2293  -16.3433    0.4959 H   0  0  0  1  0  0  0  0  0  0  0  0
   14.0987  -17.1288   -1.2228 N   0  0  0  1  0  0  0  0  0  0  0  0
   14.0199  -14.8660   -0.6410 O   0  0  0  1  0  0  0  0  0  0  0  0
   15.3738  -16.2733    0.6986 C   0  0  0  1  0  0  0  0  0  0  0  0
   15.2515  -16.9480    1.5200 H   0  0  0  1  0  0  0  0  0  0  0  0
   14.4324  -16.7117   -2.4932 C   0  0  0  1  0  0  0  0  0  0  0  0
   13.7847  -18.4427   -0.9694 C   0  0  0  1  0  0  0  0  0  0  0  0
   13.5385  -18.7160    0.0034 H   0  0  0  1  0  0  0  0  0  0  0  0
   14.9338  -13.9949    0.0726 C   0  0  0  1  0  0  0  0  0  0  0  0
   15.6889  -13.6309   -0.5923 H   0  0  0  1  0  0  0  0  0  0  0  0
   15.5727  -14.8326    1.1870 C   0  0  0  1  0  0  0  0  0  0  0  0
   15.0758  -14.6718    2.1209 H   0  0  0  1  0  0  0  0  0  0  0  0
   16.4695  -16.7017   -0.1112 O   0  0  0  1  0  0  0  0  0  0  0  0
   16.4340  -17.6548   -0.2203 H   0  0  0  1  0  0  0  0  0  0  0  0
   14.4270  -17.6859   -3.4618 N   0  0  0  1  0  0  0  0  0  0  0  0
   14.6618  -17.4076   -4.3717 H   0  0  0  1  0  0  0  0  0  0  0  0
   14.7146  -15.5511   -2.7419 O   0  0  0  1  0  0  0  0  0  0  0  0
   13.7817  -19.3999   -1.9327 C   0  0  0  1  0  0  0  0  0  0  0  0
   13.5389  -20.3851   -1.7049 H   0  0  0  1  0  0  0  0  0  0  0  0
   14.1892  -12.8417    0.6606 C   0  0  0  1  0  0  0  0  0  0  0  0
   13.6530  -13.1595    1.5303 H   0  0  0  1  0  0  0  0  0  0  0  0
   13.5020  -12.4470   -0.0583 H   0  0  0  1  0  0  0  0  0  0  0  0
   16.9608  -14.5261    1.3266 O   0  0  0  1  0  0  0  0  0  0  0  0
   17.2211  -14.6298    2.2447 H   0  0  0  1  0  0  0  0  0  0  0  0
   14.1231  -19.0159   -3.2761 C   0  0  0  1  0  0  0  0  0  0  0  0
   15.1593  -11.8307    1.0219 O   0  0  0  1  0  0  0  0  0  0  0  0
   14.1422  -19.8203   -4.1956 O   0  0  0  1  0  0  0  0  0  0  0  0
   15.1734  -10.3891    0.2795 P   0  0  0  1  0  0  0  0  0  0  0  0
   16.7327  -10.0440    0.4373 O   0  0  0  1  0  0  0  0  0  0  0  0
   14.9900  -10.5877   -1.1783 O   0  0  0  0  0  0  0  0  0  0  0  0
   14.3400   -9.4059    1.0089 O   0  0  0  1  0  0  0  0  0  0  0  0
   17.7749   -9.3605   -0.5284 P   0  0  0  1  0  0  0  0  0  0  0  0
   17.0326   -8.6641   -1.6664 O   0  0  0  0  0  0  0  0  0  0  0  0
   18.6086   -8.4430    0.3002 O   0  0  0  1  0  0  0  0  0  0  0  0
   18.6102  -10.4915   -1.2349 O   0  0  0  1  0  0  0  0  0  0  0  0
   18.0718  -11.5006   -2.1096 C   0  0  0  1  0  0  0  0  0  0  0  0
   17.0383  -11.6571   -1.8810 H   0  0  0  1  0  0  0  0  0  0  0  0
   18.8399  -12.8087   -1.9094 C   0  0  0  1  0  0  0  0  0  0  0  0
   18.6786  -13.1637   -0.9130 H   0  0  0  1  0  0  0  0  0  0  0  0
   20.2340  -12.5721   -2.1113 O   0  0  0  1  0  0  0  0  0  0  0  0
   20.3532  -11.9710   -2.8503 H   0  0  0  1  0  0  0  0  0  0  0  0
   18.4060  -13.3251   -4.3276 C   0  0  0  1  0  0  0  0  0  0  0  0
   19.4246  -13.1828   -4.6229 H   0  0  0  1  0  0  0  0  0  0  0  0
   17.7838  -14.2687   -5.2010 O   0  0  0  1  0  0  0  0  0  0  0  0
   17.0025  -14.6310   -4.7770 H   0  0  0  1  0  0  0  0  0  0  0  0
   18.3626  -13.8547   -2.8959 C   0  0  0  1  0  0  0  0  0  0  0  0
   18.9933  -14.7160   -2.8234 H   0  0  0  1  0  0  0  0  0  0  0  0
   17.6644  -11.9939   -4.4094 C   0  0  0  1  0  0  0  0  0  0  0  0
   16.6286  -12.1544   -4.1941 H   0  0  0  1  0  0  0  0  0  0  0  0
   17.8073  -11.4334   -5.7951 C   0  0  0  1  0  0  0  0  0  0  0  0
   18.8451  -11.3017   -6.0202 H   0  0  0  1  0  0  0  0  0  0  0  0
   17.3073  -10.4891   -5.8502 H   0  0  0  1  0  0  0  0  0  0  0  0
   17.2300  -12.3293   -6.7357 O   0  0  0  1  0  0  0  0  0  0  0  0
   16.5844  -11.8608   -7.2700 H   0  0  0  1  0  0  0  0  0  0  0  0
   18.1982  -11.0667   -3.4728 O   0  0  0  1  0  0  0  0  0  0  0  0
   17.0194  -14.2190   -2.5747 O   0  0  0  1  0  0  0  0  0  0  0  0
   16.5747  -13.4738   -2.1642 H   0  0  0  1  0  0  0  0  0  0  0  0
  1  2  1  0  0  0  0
  1  3  1  0  0  0  0
  1  4  1  0  0  0  0
  1  5  1  0  0  0  0
  3  7  1  0  0  0  0
  3  8  1  0  0  0  0
  4 10  1  0  0  0  0
  5  6  1  0  0  0  0
  5 12  1  0  0  0  0
  5 14  1  0  0  0  0
  7 16  1  0  0  0  0
  7 18  2  0  0  0  0
  8  9  1  0  0  0  0
  8 19  2  0  0  0  0
 10 11  1  0  0  0  0
 10 12  1  0  0  0  0
 10 21  1  0  0  0  0
 12 13  1  0  0  0  0
 12 24  1  0  0  0  0
 14 15  1  0  0  0  0
 16 17  1  0  0  0  0
 16 26  1  0  0  0  0
 19 20  1  0  0  0  0
 19 26  1  0  0  0  0
 21 22  1  0  0  0  0
 21 23  1  0  0  0  0
 21 27  1  0  0  0  0
 24 25  1  0  0  0  0
 26 28  2  0  0  0  0
 27 29  1  0  0  0  0
 29 30  1  0  0  0  0
 29 31  1  0  0  0  0
 29 32  2  0  0  0  0
 30 33  1  0  0  0  0
 33 34  1  0  0  0  0
 33 35  2  0  0  0  0
 33 36  1  0  0  0  0
 36 37  1  0  0  0  0
 37 38  1  0  0  0  0
 37 39  1  0  0  0  0
 37 56  1  0  0  0  0
 39 40  1  0  0  0  0
 39 41  1  0  0  0  0
 39 47  1  0  0  0  0
 41 42  1  0  0  0  0
 43 44  1  0  0  0  0
 43 45  1  0  0  0  0
 43 47  1  0  0  0  0
 43 49  1  0  0  0  0
 45 46  1  0  0  0  0
 47 48  1  0  0  0  0
 47 57  1  0  0  0  0
 49 50  1  0  0  0  0
 49 51  1  0  0  0  0
 49 56  1  0  0  0  0
 51 52  1  0  0  0  0
 51 53  1  0  0  0  0
 51 54  1  0  0  0  0
 54 55  1  0  0  0  0
 57 58  1  0  0  0  0
M  BCL ATM C_TeTeTeTe H_S N_TrTrTrPi2 O_Te2Te2TeTe C_TeTeTeTe H_S C_TrTrTrPi C_TrTrTrPi H_S C_TeTeTeTe H_S C_TeTeTeTe H_S O_Te2Te2TeTe H_S N_TrTrTrPi2 H_S O_Tr2Tr2TrPi C_TrTrTrPi H_S C_TeTeTeTe H_S H_S O_Te2Te2TeTe H_S C_TrTrTrPi O_Tr2TrTrPi2 O_Tr2Tr2TrPi P_TeTeTeTePi O_Tr2TrTrPi2 O_Te2Te2TeTe O_Tr2Tr2TrPi P_TeTeTeTePi O_Te2Te2TeTe O_Tr2Tr2TrPi O_Tr2TrTrPi2 C_TeTeTeTe H_S C_TeTeTeTe H_S O_Te2Te2TeTe H_S C_TeTeTeTe H_S O_Te2Te2TeTe H_S C_TeTeTeTe H_S C_TeTeTeTe H_S C_TeTeTeTe H_S H_S O_Te2Te2TeTe H_S O_Te2Te2TeTe O_Te2Te2TeTe H_S
M  BCL BND NonConjugatedSingleBond NonConjugatedSingleBond NonConjugatedSingleBondInRing NonConjugatedSingleBondInRing ConjugatedSingleBondInRing ConjugatedSingleBondInRing NonConjugatedSingleBondInRing NonConjugatedSingleBond NonConjugatedSingleBondInRing NonConjugatedSingleBond ConjugatedSingleBondInRing ConjugatedDoubleBond NonConjugatedSingleBond ConjugatedDoubleBondInRing NonConjugatedSingleBond NonConjugatedSingleBondInRing NonConjugatedSingleBond NonConjugatedSingleBond NonConjugatedSingleBond NonConjugatedSingleBond NonConjugatedSingleBond ConjugatedSingleBondInRing NonConjugatedSingleBond ConjugatedSingleBondInRing NonConjugatedSingleBond NonConjugatedSingleBond NonConjugatedSingleBond NonConjugatedSingleBond ConjugatedDoubleBond ConjugatedSingleBond ConjugatedSingleBond ConjugatedSingleBond ConjugatedDoubleBond ConjugatedSingleBond ConjugatedSingleBond ConjugatedDoubleBond ConjugatedSingleBond NonConjugatedSingleBond NonConjugatedSingleBond NonConjugatedSingleBondInRing NonConjugatedSingleBondInRing NonConjugatedSingleBond NonConjugatedSingleBond NonConjugatedSingleBondInRing NonConjugatedSingleBond NonConjugatedSingleBond NonConjugatedSingleBond NonConjugatedSingleBondInRing NonConjugatedSingleBondInRing NonConjugatedSingleBond NonConjugatedSingleBond NonConjugatedSingleBond NonConjugatedSingleBond NonConjugatedSingleBond NonConjugatedSingleBondInRing NonConjugatedSingleBond NonConjugatedSingleBond NonConjugatedSingleBond NonConjugatedSingleBond NonConjugatedSingleBond
M  BCL CHI   1   S   5   S  10   S  12   R  29   S  33   R  37   S  39   R  43   R  47   R  49   S
M  BCL DBI - Z - - -
M  END
> <ConfClashScore>
0 

> <ConfOneFourInteractionScore>
-0.972558 

> <ConfScore>
0.0292529 

> <ConfScorePBest>
0.00809448 

> <ConfTolerance>
2.02041 

$$$$
ChEBI.****
  PyMOL2.5          3D                             0

 58 60  0  0  0  0  0  0  0  0999 V2000
   11.7594   -9.6036   -2.4016 C   0  0  0  1  0  0  0  0  0  0  0  0
   12.0862   -8.5851   -2.3764 H   0  0  0  1  0  0  0  0  0  0  0  0
   10.4318   -9.6771   -3.0250 N   0  0  0  1  0  0  0  0  0  0  0  0
   12.7056  -10.4224   -3.1251 O   0  0  0  1  0  0  0  0  0  0  0  0
   11.7228  -10.1917   -0.9879 C   0  0  0  1  0  0  0  0  0  0  0  0
   12.3745   -9.6538   -0.3315 H   0  0  0  1  0  0  0  0  0  0  0  0
   10.1664  -10.6710   -3.9419 C   0  0  0  1  0  0  0  0  0  0  0  0
    9.4721   -8.7535   -2.6852 C   0  0  0  1  0  0  0  0  0  0  0  0
    9.7133   -8.0195   -1.9890 H   0  0  0  1  0  0  0  0  0  0  0  0
   13.2277  -11.4499   -2.3274 C   0  0  0  1  0  0  0  0  0  0  0  0
   13.3122  -12.3583   -2.8866 H   0  0  0  1  0  0  0  0  0  0  0  0
   12.2061  -11.6036   -1.1913 C   0  0  0  1  0  0  0  0  0  0  0  0
   12.6691  -11.9843   -0.3050 H   0  0  0  1  0  0  0  0  0  0  0  0
   10.3955  -10.1755   -0.4605 O   0  0  0  1  0  0  0  0  0  0  0  0
    9.8091  -10.6508   -1.0537 H   0  0  0  1  0  0  0  0  0  0  0  0
    8.9009  -10.6673   -4.4765 N   0  0  0  1  0  0  0  0  0  0  0  0
    8.6939  -11.3671   -5.1306 H   0  0  0  1  0  0  0  0  0  0  0  0
   11.0021  -11.5013   -4.2588 O   0  0  0  1  0  0  0  0  0  0  0  0
    8.2232   -8.7567   -3.2184 C   0  0  0  1  0  0  0  0  0  0  0  0
    7.5217   -8.0419   -2.9380 H   0  0  0  1  0  0  0  0  0  0  0  0
   14.5672  -11.0711   -1.7866 C   0  0  0  1  0  0  0  0  0  0  0  0
   15.3311  -11.3344   -2.4880 H   0  0  0  1  0  0  0  0  0  0  0  0
   14.7427  -11.5775   -0.8605 H   0  0  0  1  0  0  0  0  0  0  0  0
   11.1335  -12.4646   -1.5764 O   0  0  0  1  0  0  0  0  0  0  0  0
   11.1028  -12.5299   -2.5336 H   0  0  0  1  0  0  0  0  0  0  0  0
    7.8956   -9.7741   -4.1808 C   0  0  0  1  0  0  0  0  0  0  0  0
   14.5661   -9.6368   -1.5727 O   0  0  0  1  0  0  0  0  0  0  0  0
    6.7932   -9.8416   -4.7036 O   0  0  0  1  0  0  0  0  0  0  0  0
   15.3636   -8.6477   -2.5756 P   0  0  0  1  0  0  0  0  0  0  0  0
   16.6693   -8.3804   -1.6913 O   0  0  0  1  0  0  0  0  0  0  0  0
   15.8649   -9.3931   -3.7521 O   0  0  0  0  0  0  0  0  0  0  0  0
   14.5377   -7.4407   -2.7958 O   0  0  0  1  0  0  0  0  0  0  0  0
   17.5355   -9.2402   -0.6705 P   0  0  0  1  0  0  0  0  0  0  0  0
   18.4060   -8.2732    0.0463 O   0  0  0  0  0  0  0  0  0  0  0  0
   16.6669  -10.1577    0.1084 O   0  0  0  1  0  0  0  0  0  0  0  0
   18.5111  -10.0493   -1.6160 O   0  0  0  1  0  0  0  0  0  0  0  0
   18.0017  -11.2131   -2.3026 C   0  0  0  1  0  0  0  0  0  0  0  0
   16.9729  -11.3574   -2.0460 H   0  0  0  1  0  0  0  0  0  0  0  0
   18.8075  -12.4440   -1.8823 C   0  0  0  1  0  0  0  0  0  0  0  0
   18.6557  -12.6257   -0.8388 H   0  0  0  1  0  0  0  0  0  0  0  0
   20.1942  -12.2057   -2.1280 O   0  0  0  1  0  0  0  0  0  0  0  0
   20.6306  -13.0358   -2.3330 H   0  0  0  1  0  0  0  0  0  0  0  0
   18.3909  -13.3836   -4.1728 C   0  0  0  1  0  0  0  0  0  0  0  0
   19.4051  -13.2651   -4.4925 H   0  0  0  1  0  0  0  0  0  0  0  0
   17.7972  -14.4817   -4.8672 O   0  0  0  1  0  0  0  0  0  0  0  0
   17.0064  -14.1832   -5.3223 H   0  0  0  1  0  0  0  0  0  0  0  0
   18.3618  -13.6583   -2.6709 C   0  0  0  1  0  0  0  0  0  0  0  0
   19.0173  -14.4755   -2.4531 H   0  0  0  1  0  0  0  0  0  0  0  0
   17.6108  -12.1086   -4.4806 C   0  0  0  1  0  0  0  0  0  0  0  0
   16.5800  -12.2593   -4.2364 H   0  0  0  1  0  0  0  0  0  0  0  0
   17.7375  -11.7951   -5.9313 C   0  0  0  1  0  0  0  0  0  0  0  0
   17.1418  -12.4963   -6.4775 H   0  0  0  1  0  0  0  0  0  0  0  0
   18.7649  -11.9070   -6.2084 H   0  0  0  1  0  0  0  0  0  0  0  0
   17.3243  -10.4938   -6.2890 O   0  0  0  1  0  0  0  0  0  0  0  0
   16.4146  -10.3593   -6.0136 H   0  0  0  1  0  0  0  0  0  0  0  0
   18.1165  -11.0182   -3.7209 O   0  0  0  1  0  0  0  0  0  0  0  0
   17.0295  -14.0002   -2.2859 O   0  0  0  1  0  0  0  0  0  0  0  0
   16.8650  -14.9244   -2.4868 H   0  0  0  1  0  0  0  0  0  0  0  0
  1  2  1  0  0  0  0
  1  3  1  0  0  0  0
  1  4  1  0  0  0  0
  1  5  1  0  0  0  0
  3  7  1  0  0  0  0
  3  8  1  0  0  0  0
  4 10  1  0  0  0  0
  5  6  1  0  0  0  0
  5 12  1  0  0  0  0
  5 14  1  0  0  0  0
  7 16  1  0  0  0  0
  7 18  2  0  0  0  0
  8  9  1  0  0  0  0
  8 19  2  0  0  0  0
 10 11  1  0  0  0  0
 10 12  1  0  0  0  0
 10 21  1  0  0  0  0
 12 13  1  0  0  0  0
 12 24  1  0  0  0  0
 14 15  1  0  0  0  0
 16 17  1  0  0  0  0
 16 26  1  0  0  0  0
 19 20  1  0  0  0  0
 19 26  1  0  0  0  0
 21 22  1  0  0  0  0
 21 23  1  0  0  0  0
 21 27  1  0  0  0  0
 24 25  1  0  0  0  0
 26 28  2  0  0  0  0
 27 29  1  0  0  0  0
 29 30  1  0  0  0  0
 29 31  1  0  0  0  0
 29 32  2  0  0  0  0
 30 33  1  0  0  0  0
 33 34  1  0  0  0  0
 33 35  2  0  0  0  0
 33 36  1  0  0  0  0
 36 37  1  0  0  0  0
 37 38  1  0  0  0  0
 37 39  1  0  0  0  0
 37 56  1  0  0  0  0
 39 40  1  0  0  0  0
 39 41  1  0  0  0  0
 39 47  1  0  0  0  0
 41 42  1  0  0  0  0
 43 44  1  0  0  0  0
 43 45  1  0  0  0  0
 43 47  1  0  0  0  0
 43 49  1  0  0  0  0
 45 46  1  0  0  0  0
 47 48  1  0  0  0  0
 47 57  1  0  0  0  0
 49 50  1  0  0  0  0
 49 51  1  0  0  0  0
 49 56  1  0  0  0  0
 51 52  1  0  0  0  0
 51 53  1  0  0  0  0
 51 54  1  0  0  0  0
 54 55  1  0  0  0  0
 57 58  1  0  0  0  0
M  BCL ATM C_TeTeTeTe H_S N_TrTrTrPi2 O_Te2Te2TeTe C_TeTeTeTe H_S C_TrTrTrPi C_TrTrTrPi H_S C_TeTeTeTe H_S C_TeTeTeTe H_S O_Te2Te2TeTe H_S N_TrTrTrPi2 H_S O_Tr2Tr2TrPi C_TrTrTrPi H_S C_TeTeTeTe H_S H_S O_Te2Te2TeTe H_S C_TrTrTrPi O_Tr2TrTrPi2 O_Tr2Tr2TrPi P_TeTeTeTePi O_Tr2TrTrPi2 O_Te2Te2TeTe O_Tr2Tr2TrPi P_TeTeTeTePi O_Te2Te2TeTe O_Tr2Tr2TrPi O_Tr2TrTrPi2 C_TeTeTeTe H_S C_TeTeTeTe H_S O_Te2Te2TeTe H_S C_TeTeTeTe H_S O_Te2Te2TeTe H_S C_TeTeTeTe H_S C_TeTeTeTe H_S C_TeTeTeTe H_S H_S O_Te2Te2TeTe H_S O_Te2Te2TeTe O_Te2Te2TeTe H_S
M  BCL BND NonConjugatedSingleBond NonConjugatedSingleBond NonConjugatedSingleBondInRing NonConjugatedSingleBondInRing ConjugatedSingleBondInRing ConjugatedSingleBondInRing NonConjugatedSingleBondInRing NonConjugatedSingleBond NonConjugatedSingleBondInRing NonConjugatedSingleBond ConjugatedSingleBondInRing ConjugatedDoubleBond NonConjugatedSingleBond ConjugatedDoubleBondInRing NonConjugatedSingleBond NonConjugatedSingleBondInRing NonConjugatedSingleBond NonConjugatedSingleBond NonConjugatedSingleBond NonConjugatedSingleBond NonConjugatedSingleBond ConjugatedSingleBondInRing NonConjugatedSingleBond ConjugatedSingleBondInRing NonConjugatedSingleBond NonConjugatedSingleBond NonConjugatedSingleBond NonConjugatedSingleBond ConjugatedDoubleBond ConjugatedSingleBond ConjugatedSingleBond ConjugatedSingleBond ConjugatedDoubleBond ConjugatedSingleBond ConjugatedSingleBond ConjugatedDoubleBond ConjugatedSingleBond NonConjugatedSingleBond NonConjugatedSingleBond NonConjugatedSingleBondInRing NonConjugatedSingleBondInRing NonConjugatedSingleBond NonConjugatedSingleBond NonConjugatedSingleBondInRing NonConjugatedSingleBond NonConjugatedSingleBond NonConjugatedSingleBond NonConjugatedSingleBondInRing NonConjugatedSingleBondInRing NonConjugatedSingleBond NonConjugatedSingleBond NonConjugatedSingleBond NonConjugatedSingleBond NonConjugatedSingleBond NonConjugatedSingleBondInRing NonConjugatedSingleBond NonConjugatedSingleBond NonConjugatedSingleBond NonConjugatedSingleBond NonConjugatedSingleBond
M  BCL CHI   1   S   5   S  10   S  12   R  29   S  33   R  37   S  39   R  43   R  47   R  49   S
M  BCL DBI - Z - - -
M  END
> <ConfClashScore>
0 

> <ConfOneFourInteractionScore>
-0.986111 

> <ConfScore>
0.036926 

> <ConfScorePBest>
0.00799148 

> <ConfTolerance>
1.98526 

$$$$
ChEBI.****
  PyMOL2.5          3D                             0

 58 60  0  0  0  0  0  0  0  0999 V2000
   16.7394   -4.3352   -1.8819 C   0  0  0  1  0  0  0  0  0  0  0  0
   17.5909   -4.9829   -1.9012 H   0  0  0  1  0  0  0  0  0  0  0  0
   17.0673   -3.0757   -2.5569 N   0  0  0  1  0  0  0  0  0  0  0  0
   15.6051   -4.9695   -2.5144 O   0  0  0  1  0  0  0  0  0  0  0  0
   16.2962   -4.0726   -0.4396 C   0  0  0  1  0  0  0  0  0  0  0  0
   16.6314   -4.8517    0.2127 H   0  0  0  1  0  0  0  0  0  0  0  0
   18.3959   -2.7532   -2.7588 C   0  0  0  1  0  0  0  0  0  0  0  0
   16.0454   -2.2588   -2.9659 C   0  0  0  1  0  0  0  0  0  0  0  0
   15.0600   -2.5228   -2.7634 H   0  0  0  1  0  0  0  0  0  0  0  0
   14.5203   -5.1003   -1.6363 C   0  0  0  1  0  0  0  0  0  0  0  0
   13.5990   -4.8890   -2.1378 H   0  0  0  1  0  0  0  0  0  0  0  0
   14.7934   -4.0609   -0.5395 C   0  0  0  1  0  0  0  0  0  0  0  0
   14.3429   -4.3502    0.3869 H   0  0  0  1  0  0  0  0  0  0  0  0
   16.7860   -2.8217    0.0245 O   0  0  0  1  0  0  0  0  0  0  0  0
   17.7422   -2.8601    0.1002 H   0  0  0  1  0  0  0  0  0  0  0  0
   18.6515   -1.5909   -3.4331 N   0  0  0  1  0  0  0  0  0  0  0  0
   19.5893   -1.3500   -3.5844 H   0  0  0  1  0  0  0  0  0  0  0  0
   19.2968   -3.4703   -2.3554 O   0  0  0  1  0  0  0  0  0  0  0  0
   16.3191   -1.0756   -3.6520 C   0  0  0  1  0  0  0  0  0  0  0  0
   15.5427   -0.4577   -3.9635 H   0  0  0  1  0  0  0  0  0  0  0  0
   14.4701   -6.4606   -1.0665 C   0  0  0  1  0  0  0  0  0  0  0  0
   14.1879   -7.1530   -1.8319 H   0  0  0  1  0  0  0  0  0  0  0  0
   13.7474   -6.4858   -0.2779 H   0  0  0  1  0  0  0  0  0  0  0  0
   14.3127   -2.7712   -0.9212 O   0  0  0  1  0  0  0  0  0  0  0  0
   15.0085   -2.1210   -0.7997 H   0  0  0  1  0  0  0  0  0  0  0  0
   17.6718   -0.7218   -3.9218 C   0  0  0  1  0  0  0  0  0  0  0  0
   15.7643   -6.8352   -0.5388 O   0  0  0  1  0  0  0  0  0  0  0  0
   17.9607    0.2875   -4.5471 O   0  0  0  1  0  0  0  0  0  0  0  0
   16.3026   -8.3258   -0.6804 P   0  0  0  1  0  0  0  0  0  0  0  0
   17.1087   -8.2966   -2.0828 O   0  0  0  1  0  0  0  0  0  0  0  0
   17.3450   -8.4860    0.3599 O   0  0  0  0  0  0  0  0  0  0  0  0
   15.1827   -9.2778   -0.7357 O   0  0  0  1  0  0  0  0  0  0  0  0
   18.6536   -8.6185   -2.1705 P   0  0  0  1  0  0  0  0  0  0  0  0
   19.1529   -8.6098   -3.5886 O   0  0  0  0  0  0  0  0  0  0  0  0
   19.3514   -7.6888   -1.2262 O   0  0  0  1  0  0  0  0  0  0  0  0
   18.6741  -10.0796   -1.5960 O   0  0  0  1  0  0  0  0  0  0  0  0
   18.0757  -11.1932   -2.2672 C   0  0  0  1  0  0  0  0  0  0  0  0
   17.0430  -11.2613   -1.9954 H   0  0  0  1  0  0  0  0  0  0  0  0
   18.7948  -12.4799   -1.8568 C   0  0  0  1  0  0  0  0  0  0  0  0
   18.6455  -12.6494   -0.8110 H   0  0  0  1  0  0  0  0  0  0  0  0
   20.1915  -12.3445   -2.1232 O   0  0  0  1  0  0  0  0  0  0  0  0
   20.4547  -12.9856   -2.7875 H   0  0  0  1  0  0  0  0  0  0  0  0
   18.2764  -13.3874   -4.1396 C   0  0  0  1  0  0  0  0  0  0  0  0
   19.2918  -13.3441   -4.4743 H   0  0  0  1  0  0  0  0  0  0  0  0
   17.5927  -14.4403   -4.8241 O   0  0  0  1  0  0  0  0  0  0  0  0
   17.8502  -14.4415   -5.7489 H   0  0  0  1  0  0  0  0  0  0  0  0
   18.2493  -13.6585   -2.6369 C   0  0  0  1  0  0  0  0  0  0  0  0
   18.8461  -14.5216   -2.4274 H   0  0  0  1  0  0  0  0  0  0  0  0
   17.5879  -12.0586   -4.4379 C   0  0  0  1  0  0  0  0  0  0  0  0
   16.5525  -12.1329   -4.1784 H   0  0  0  1  0  0  0  0  0  0  0  0
   17.7179  -11.7512   -5.9139 C   0  0  0  1  0  0  0  0  0  0  0  0
   16.7760  -11.4415   -6.3162 H   0  0  0  1  0  0  0  0  0  0  0  0
   18.0681  -12.6110   -6.4459 H   0  0  0  1  0  0  0  0  0  0  0  0
   18.6768  -10.6824   -5.9980 O   0  0  0  1  0  0  0  0  0  0  0  0
   18.2165   -9.8405   -6.0266 H   0  0  0  1  0  0  0  0  0  0  0  0
   18.1836  -11.0080   -3.6874 O   0  0  0  1  0  0  0  0  0  0  0  0
   16.9013  -13.9012   -2.2319 O   0  0  0  1  0  0  0  0  0  0  0  0
   16.7624  -14.8456   -2.1297 H   0  0  0  1  0  0  0  0  0  0  0  0
  1  2  1  0  0  0  0
  1  3  1  0  0  0  0
  1  4  1  0  0  0  0
  1  5  1  0  0  0  0
  3  7  1  0  0  0  0
  3  8  1  0  0  0  0
  4 10  1  0  0  0  0
  5  6  1  0  0  0  0
  5 12  1  0  0  0  0
  5 14  1  0  0  0  0
  7 16  1  0  0  0  0
  7 18  2  0  0  0  0
  8  9  1  0  0  0  0
  8 19  2  0  0  0  0
 10 11  1  0  0  0  0
 10 12  1  0  0  0  0
 10 21  1  0  0  0  0
 12 13  1  0  0  0  0
 12 24  1  0  0  0  0
 14 15  1  0  0  0  0
 16 17  1  0  0  0  0
 16 26  1  0  0  0  0
 19 20  1  0  0  0  0
 19 26  1  0  0  0  0
 21 22  1  0  0  0  0
 21 23  1  0  0  0  0
 21 27  1  0  0  0  0
 24 25  1  0  0  0  0
 26 28  2  0  0  0  0
 27 29  1  0  0  0  0
 29 30  1  0  0  0  0
 29 31  1  0  0  0  0
 29 32  2  0  0  0  0
 30 33  1  0  0  0  0
 33 34  1  0  0  0  0
 33 35  2  0  0  0  0
 33 36  1  0  0  0  0
 36 37  1  0  0  0  0
 37 38  1  0  0  0  0
 37 39  1  0  0  0  0
 37 56  1  0  0  0  0
 39 40  1  0  0  0  0
 39 41  1  0  0  0  0
 39 47  1  0  0  0  0
 41 42  1  0  0  0  0
 43 44  1  0  0  0  0
 43 45  1  0  0  0  0
 43 47  1  0  0  0  0
 43 49  1  0  0  0  0
 45 46  1  0  0  0  0
 47 48  1  0  0  0  0
 47 57  1  0  0  0  0
 49 50  1  0  0  0  0
 49 51  1  0  0  0  0
 49 56  1  0  0  0  0
 51 52  1  0  0  0  0
 51 53  1  0  0  0  0
 51 54  1  0  0  0  0
 54 55  1  0  0  0  0
 57 58  1  0  0  0  0
M  BCL ATM C_TeTeTeTe H_S N_TrTrTrPi2 O_Te2Te2TeTe C_TeTeTeTe H_S C_TrTrTrPi C_TrTrTrPi H_S C_TeTeTeTe H_S C_TeTeTeTe H_S O_Te2Te2TeTe H_S N_TrTrTrPi2 H_S O_Tr2Tr2TrPi C_TrTrTrPi H_S C_TeTeTeTe H_S H_S O_Te2Te2TeTe H_S C_TrTrTrPi O_Tr2TrTrPi2 O_Tr2Tr2TrPi P_TeTeTeTePi O_Tr2TrTrPi2 O_Te2Te2TeTe O_Tr2Tr2TrPi P_TeTeTeTePi O_Te2Te2TeTe O_Tr2Tr2TrPi O_Tr2TrTrPi2 C_TeTeTeTe H_S C_TeTeTeTe H_S O_Te2Te2TeTe H_S C_TeTeTeTe H_S O_Te2Te2TeTe H_S C_TeTeTeTe H_S C_TeTeTeTe H_S C_TeTeTeTe H_S H_S O_Te2Te2TeTe H_S O_Te2Te2TeTe O_Te2Te2TeTe H_S
M  BCL BND NonConjugatedSingleBond NonConjugatedSingleBond NonConjugatedSingleBondInRing NonConjugatedSingleBondInRing ConjugatedSingleBondInRing ConjugatedSingleBondInRing NonConjugatedSingleBondInRing NonConjugatedSingleBond NonConjugatedSingleBondInRing NonConjugatedSingleBond ConjugatedSingleBondInRing ConjugatedDoubleBond NonConjugatedSingleBond ConjugatedDoubleBondInRing NonConjugatedSingleBond NonConjugatedSingleBondInRing NonConjugatedSingleBond NonConjugatedSingleBond NonConjugatedSingleBond NonConjugatedSingleBond NonConjugatedSingleBond ConjugatedSingleBondInRing NonConjugatedSingleBond ConjugatedSingleBondInRing NonConjugatedSingleBond NonConjugatedSingleBond NonConjugatedSingleBond NonConjugatedSingleBond ConjugatedDoubleBond ConjugatedSingleBond ConjugatedSingleBond ConjugatedSingleBond ConjugatedDoubleBond ConjugatedSingleBond ConjugatedSingleBond ConjugatedDoubleBond ConjugatedSingleBond NonConjugatedSingleBond NonConjugatedSingleBond NonConjugatedSingleBondInRing NonConjugatedSingleBondInRing NonConjugatedSingleBond NonConjugatedSingleBond NonConjugatedSingleBondInRing NonConjugatedSingleBond NonConjugatedSingleBond NonConjugatedSingleBond NonConjugatedSingleBondInRing NonConjugatedSingleBondInRing NonConjugatedSingleBond NonConjugatedSingleBond NonConjugatedSingleBond NonConjugatedSingleBond NonConjugatedSingleBond NonConjugatedSingleBondInRing NonConjugatedSingleBond NonConjugatedSingleBond NonConjugatedSingleBond NonConjugatedSingleBond NonConjugatedSingleBond
M  BCL CHI   1   S   5   S  10   S  12   R  29   S  33   R  37   S  39   R  43   R  47   R  49   S
M  BCL DBI - Z - - -
M  END
> <ConfClashScore>
0 

> <ConfOneFourInteractionScore>
-0.972429 

> <ConfScore>
0.0517116 

> <ConfScorePBest>
0.00788848 

> <ConfTolerance>
1.74708 

$$$$
ChEBI.****
  PyMOL2.5          3D                             0

 58 60  0  0  0  0  0  0  0  0999 V2000
   20.2355   -2.3781   -2.5448 C   0  0  0  1  0  0  0  0  0  0  0  0
   19.3201   -1.8252   -2.5093 H   0  0  0  1  0  0  0  0  0  0  0  0
   21.3359   -1.5361   -2.0585 N   0  0  0  1  0  0  0  0  0  0  0  0
   20.1307   -3.5676   -1.7543 O   0  0  0  1  0  0  0  0  0  0  0  0
   20.5172   -2.8512   -3.9722 C   0  0  0  1  0  0  0  0  0  0  0  0
   19.6113   -3.0231   -4.5151 H   0  0  0  1  0  0  0  0  0  0  0  0
   21.4333   -0.2403   -2.4873 C   0  0  0  1  0  0  0  0  0  0  0  0
   22.2556   -2.0630   -1.1765 C   0  0  0  1  0  0  0  0  0  0  0  0
   22.1345   -3.0510   -0.8751 H   0  0  0  1  0  0  0  0  0  0  0  0
   20.6746   -4.6888   -2.4747 C   0  0  0  1  0  0  0  0  0  0  0  0
   21.4259   -5.1751   -1.8882 H   0  0  0  1  0  0  0  0  0  0  0  0
   21.2636   -4.1500   -3.7055 C   0  0  0  1  0  0  0  0  0  0  0  0
   21.1271   -4.8341   -4.5169 H   0  0  0  1  0  0  0  0  0  0  0  0
   21.3294   -1.9162   -4.6838 O   0  0  0  1  0  0  0  0  0  0  0  0
   21.2102   -2.0419   -5.6281 H   0  0  0  1  0  0  0  0  0  0  0  0
   22.4970    0.4629   -1.9651 N   0  0  0  1  0  0  0  0  0  0  0  0
   22.5860    1.3965   -2.2494 H   0  0  0  1  0  0  0  0  0  0  0  0
   20.6399    0.2541   -3.2713 O   0  0  0  1  0  0  0  0  0  0  0  0
   23.2996   -1.3745   -0.6836 C   0  0  0  1  0  0  0  0  0  0  0  0
   23.9767   -1.8201   -0.0320 H   0  0  0  1  0  0  0  0  0  0  0  0
   19.5921   -5.6630   -2.8052 C   0  0  0  1  0  0  0  0  0  0  0  0
   18.7879   -5.1600   -3.3002 H   0  0  0  1  0  0  0  0  0  0  0  0
   19.2290   -6.1219   -1.9095 H   0  0  0  1  0  0  0  0  0  0  0  0
   22.6577   -3.8976   -3.5241 O   0  0  0  1  0  0  0  0  0  0  0  0
   23.1241   -4.7309   -3.4252 H   0  0  0  1  0  0  0  0  0  0  0  0
   23.4500   -0.0063   -1.0849 C   0  0  0  1  0  0  0  0  0  0  0  0
   20.1586   -6.6702   -3.6815 O   0  0  0  1  0  0  0  0  0  0  0  0
   24.3612    0.6970   -0.6748 O   0  0  0  1  0  0  0  0  0  0  0  0
   19.2016   -7.6572   -4.5415 P   0  0  0  1  0  0  0  0  0  0  0  0
   18.7972   -8.6839   -3.3799 O   0  0  0  1  0  0  0  0  0  0  0  0
   17.9375   -6.9548   -4.8627 O   0  0  0  0  0  0  0  0  0  0  0  0
   19.9621   -8.3406   -5.6042 O   0  0  0  1  0  0  0  0  0  0  0  0
   19.5704   -9.3713   -2.1377 P   0  0  0  1  0  0  0  0  0  0  0  0
   20.6484  -10.1855   -2.7479 O   0  0  0  0  0  0  0  0  0  0  0  0
   19.9034   -8.3961   -1.1158 O   0  0  0  1  0  0  0  0  0  0  0  0
   18.4794  -10.2777   -1.4483 O   0  0  0  1  0  0  0  0  0  0  0  0
   17.9925  -11.3631   -2.2193 C   0  0  0  1  0  0  0  0  0  0  0  0
   16.9629  -11.5348   -1.9841 H   0  0  0  1  0  0  0  0  0  0  0  0
   18.8037  -12.6196   -1.8967 C   0  0  0  1  0  0  0  0  0  0  0  0
   18.6453  -12.8888   -0.8733 H   0  0  0  1  0  0  0  0  0  0  0  0
   20.1905  -12.3528   -2.1104 O   0  0  0  1  0  0  0  0  0  0  0  0
   20.5304  -12.9446   -2.7855 H   0  0  0  1  0  0  0  0  0  0  0  0
   18.4110  -13.3672   -4.2610 C   0  0  0  1  0  0  0  0  0  0  0  0
   19.4268  -13.2160   -4.5615 H   0  0  0  1  0  0  0  0  0  0  0  0
   17.8304  -14.4072   -5.0494 O   0  0  0  1  0  0  0  0  0  0  0  0
   17.0200  -14.0886   -5.4535 H   0  0  0  1  0  0  0  0  0  0  0  0
   18.3725  -13.7666   -2.7875 C   0  0  0  1  0  0  0  0  0  0  0  0
   19.0321  -14.5949   -2.6334 H   0  0  0  1  0  0  0  0  0  0  0  0
   17.6243  -12.0759   -4.4676 C   0  0  0  1  0  0  0  0  0  0  0  0
   16.5928  -12.2531   -4.2453 H   0  0  0  1  0  0  0  0  0  0  0  0
   17.7609  -11.6380   -5.8977 C   0  0  0  1  0  0  0  0  0  0  0  0
   16.8589  -11.1623   -6.2218 H   0  0  0  1  0  0  0  0  0  0  0  0
   17.9624  -12.4840   -6.5211 H   0  0  0  1  0  0  0  0  0  0  0  0
   18.8439  -10.7194   -5.9614 O   0  0  0  1  0  0  0  0  0  0  0  0
   19.6741  -11.2010   -5.9428 H   0  0  0  1  0  0  0  0  0  0  0  0
   18.1166  -11.0497   -3.6154 O   0  0  0  1  0  0  0  0  0  0  0  0
   17.0398  -14.1479   -2.4432 O   0  0  0  1  0  0  0  0  0  0  0  0
   16.8596  -13.8977   -1.5341 H   0  0  0  1  0  0  0  0  0  0  0  0
  1  2  1  0  0  0  0
  1  3  1  0  0  0  0
  1  4  1  0  0  0  0
  1  5  1  0  0  0  0
  3  7  1  0  0  0  0
  3  8  1  0  0  0  0
  4 10  1  0  0  0  0
  5  6  1  0  0  0  0
  5 12  1  0  0  0  0
  5 14  1  0  0  0  0
  7 16  1  0  0  0  0
  7 18  2  0  0  0  0
  8  9  1  0  0  0  0
  8 19  2  0  0  0  0
 10 11  1  0  0  0  0
 10 12  1  0  0  0  0
 10 21  1  0  0  0  0
 12 13  1  0  0  0  0
 12 24  1  0  0  0  0
 14 15  1  0  0  0  0
 16 17  1  0  0  0  0
 16 26  1  0  0  0  0
 19 20  1  0  0  0  0
 19 26  1  0  0  0  0
 21 22  1  0  0  0  0
 21 23  1  0  0  0  0
 21 27  1  0  0  0  0
 24 25  1  0  0  0  0
 26 28  2  0  0  0  0
 27 29  1  0  0  0  0
 29 30  1  0  0  0  0
 29 31  1  0  0  0  0
 29 32  2  0  0  0  0
 30 33  1  0  0  0  0
 33 34  1  0  0  0  0
 33 35  2  0  0  0  0
 33 36  1  0  0  0  0
 36 37  1  0  0  0  0
 37 38  1  0  0  0  0
 37 39  1  0  0  0  0
 37 56  1  0  0  0  0
 39 40  1  0  0  0  0
 39 41  1  0  0  0  0
 39 47  1  0  0  0  0
 41 42  1  0  0  0  0
 43 44  1  0  0  0  0
 43 45  1  0  0  0  0
 43 47  1  0  0  0  0
 43 49  1  0  0  0  0
 45 46  1  0  0  0  0
 47 48  1  0  0  0  0
 47 57  1  0  0  0  0
 49 50  1  0  0  0  0
 49 51  1  0  0  0  0
 49 56  1  0  0  0  0
 51 52  1  0  0  0  0
 51 53  1  0  0  0  0
 51 54  1  0  0  0  0
 54 55  1  0  0  0  0
 57 58  1  0  0  0  0
M  BCL ATM C_TeTeTeTe H_S N_TrTrTrPi2 O_Te2Te2TeTe C_TeTeTeTe H_S C_TrTrTrPi C_TrTrTrPi H_S C_TeTeTeTe H_S C_TeTeTeTe H_S O_Te2Te2TeTe H_S N_TrTrTrPi2 H_S O_Tr2Tr2TrPi C_TrTrTrPi H_S C_TeTeTeTe H_S H_S O_Te2Te2TeTe H_S C_TrTrTrPi O_Tr2TrTrPi2 O_Tr2Tr2TrPi P_TeTeTeTePi O_Tr2TrTrPi2 O_Te2Te2TeTe O_Tr2Tr2TrPi P_TeTeTeTePi O_Te2Te2TeTe O_Tr2Tr2TrPi O_Tr2TrTrPi2 C_TeTeTeTe H_S C_TeTeTeTe H_S O_Te2Te2TeTe H_S C_TeTeTeTe H_S O_Te2Te2TeTe H_S C_TeTeTeTe H_S C_TeTeTeTe H_S C_TeTeTeTe H_S H_S O_Te2Te2TeTe H_S O_Te2Te2TeTe O_Te2Te2TeTe H_S
M  BCL BND NonConjugatedSingleBond NonConjugatedSingleBond NonConjugatedSingleBondInRing NonConjugatedSingleBondInRing ConjugatedSingleBondInRing ConjugatedSingleBondInRing NonConjugatedSingleBondInRing NonConjugatedSingleBond NonConjugatedSingleBondInRing NonConjugatedSingleBond ConjugatedSingleBondInRing ConjugatedDoubleBond NonConjugatedSingleBond ConjugatedDoubleBondInRing NonConjugatedSingleBond NonConjugatedSingleBondInRing NonConjugatedSingleBond NonConjugatedSingleBond NonConjugatedSingleBond NonConjugatedSingleBond NonConjugatedSingleBond ConjugatedSingleBondInRing NonConjugatedSingleBond ConjugatedSingleBondInRing NonConjugatedSingleBond NonConjugatedSingleBond NonConjugatedSingleBond NonConjugatedSingleBond ConjugatedDoubleBond ConjugatedSingleBond ConjugatedSingleBond ConjugatedSingleBond ConjugatedDoubleBond ConjugatedSingleBond ConjugatedSingleBond ConjugatedDoubleBond ConjugatedSingleBond NonConjugatedSingleBond NonConjugatedSingleBond NonConjugatedSingleBondInRing NonConjugatedSingleBondInRing NonConjugatedSingleBond NonConjugatedSingleBond NonConjugatedSingleBondInRing NonConjugatedSingleBond NonConjugatedSingleBond NonConjugatedSingleBond NonConjugatedSingleBondInRing NonConjugatedSingleBondInRing NonConjugatedSingleBond NonConjugatedSingleBond NonConjugatedSingleBond NonConjugatedSingleBond NonConjugatedSingleBond NonConjugatedSingleBondInRing NonConjugatedSingleBond NonConjugatedSingleBond NonConjugatedSingleBond NonConjugatedSingleBond NonConjugatedSingleBond
M  BCL CHI   1   S   5   S  10   S  12   R  29   S  33   R  37   S  39   R  43   R  47   R  49   S
M  BCL DBI - Z - - -
M  END
> <ConfClashScore>
0 

> <ConfOneFourInteractionScore>
-0.966626 

> <ConfScore>
0.062773 

> <ConfScorePBest>
0.00778548 

> <ConfTolerance>
1.63249 

$$$$
ChEBI.****
  PyMOL2.5          3D                             0

 58 60  0  0  0  0  0  0  0  0999 V2000
   23.3326   -8.7204    0.5304 C   0  0  0  1  0  0  0  0  0  0  0  0
   22.4707   -9.1913    0.9550 H   0  0  0  1  0  0  0  0  0  0  0  0
   24.3540   -9.7436    0.2259 N   0  0  0  1  0  0  0  0  0  0  0  0
   22.9746   -7.9897   -0.6643 O   0  0  0  1  0  0  0  0  0  0  0  0
   23.8962   -7.6666    1.4883 C   0  0  0  1  0  0  0  0  0  0  0  0
   23.1451   -7.3275    2.1708 H   0  0  0  1  0  0  0  0  0  0  0  0
   24.2232  -10.9852    0.7975 C   0  0  0  1  0  0  0  0  0  0  0  0
   25.4087   -9.3971   -0.6330 C   0  0  0  1  0  0  0  0  0  0  0  0
   25.4707   -8.4523   -1.0634 H   0  0  0  1  0  0  0  0  0  0  0  0
   23.2760   -6.6251   -0.5545 C   0  0  0  1  0  0  0  0  0  0  0  0
   23.6763   -6.2503   -1.4733 H   0  0  0  1  0  0  0  0  0  0  0  0
   24.3262   -6.5580    0.5638 C   0  0  0  1  0  0  0  0  0  0  0  0
   24.3012   -5.6104    1.0601 H   0  0  0  1  0  0  0  0  0  0  0  0
   25.0082   -8.1829    2.2211 O   0  0  0  1  0  0  0  0  0  0  0  0
   25.7513   -7.5802    2.1425 H   0  0  0  1  0  0  0  0  0  0  0  0
   25.2017  -11.9011    0.5211 N   0  0  0  1  0  0  0  0  0  0  0  0
   25.1267  -12.7952    0.9155 H   0  0  0  1  0  0  0  0  0  0  0  0
   23.2781  -11.2592    1.5187 O   0  0  0  1  0  0  0  0  0  0  0  0
   26.3576  -10.3634   -0.8804 C   0  0  0  1  0  0  0  0  0  0  0  0
   27.1396  -10.1374   -1.5277 H   0  0  0  1  0  0  0  0  0  0  0  0
   22.0529   -5.8386   -0.1831 C   0  0  0  1  0  0  0  0  0  0  0  0
   22.1351   -4.8248   -0.5151 H   0  0  0  1  0  0  0  0  0  0  0  0
   21.8939   -5.8563    0.8748 H   0  0  0  1  0  0  0  0  0  0  0  0
   25.6388   -6.7939    0.0524 O   0  0  0  1  0  0  0  0  0  0  0  0
   26.0368   -5.9595   -0.2061 H   0  0  0  1  0  0  0  0  0  0  0  0
   26.3174  -11.6227   -0.3059 C   0  0  0  1  0  0  0  0  0  0  0  0
   20.9826   -6.5264   -0.8793 O   0  0  0  1  0  0  0  0  0  0  0  0
   27.1950  -12.4473   -0.5014 O   0  0  0  1  0  0  0  0  0  0  0  0
   20.0039   -7.5392   -0.0955 P   0  0  0  1  0  0  0  0  0  0  0  0
   18.9063   -7.6440   -1.2597 O   0  0  0  1  0  0  0  0  0  0  0  0
   20.6921   -8.8269    0.1112 O   0  0  0  0  0  0  0  0  0  0  0  0
   19.4155   -6.8468    1.0659 O   0  0  0  1  0  0  0  0  0  0  0  0
   18.7146   -8.7175   -2.3734 P   0  0  0  1  0  0  0  0  0  0  0  0
   17.4598   -8.6438   -3.1497 O   0  0  0  0  0  0  0  0  0  0  0  0
   19.9058   -8.5595   -3.2601 O   0  0  0  1  0  0  0  0  0  0  0  0
   18.7448  -10.1157   -1.6521 O   0  0  0  1  0  0  0  0  0  0  0  0
   18.1152  -11.2323   -2.2926 C   0  0  0  1  0  0  0  0  0  0  0  0
   17.0995  -11.3064   -1.9642 H   0  0  0  1  0  0  0  0  0  0  0  0
   18.8625  -12.5161   -1.9256 C   0  0  0  1  0  0  0  0  0  0  0  0
   18.7721  -12.6885   -0.8735 H   0  0  0  1  0  0  0  0  0  0  0  0
   20.2420  -12.3727   -2.2686 O   0  0  0  1  0  0  0  0  0  0  0  0
   20.7866  -12.7201   -1.5584 H   0  0  0  1  0  0  0  0  0  0  0  0
   18.2233  -13.4216   -4.1783 C   0  0  0  1  0  0  0  0  0  0  0  0
   19.2184  -13.3723   -4.5685 H   0  0  0  1  0  0  0  0  0  0  0  0
   17.5090  -14.4754   -4.8257 O   0  0  0  1  0  0  0  0  0  0  0  0
   17.8290  -14.5739   -5.7254 H   0  0  0  1  0  0  0  0  0  0  0  0
   18.2808  -13.6959   -2.6771 C   0  0  0  1  0  0  0  0  0  0  0  0
   18.8926  -14.5563   -2.5030 H   0  0  0  1  0  0  0  0  0  0  0  0
   17.5125  -12.0958   -4.4350 C   0  0  0  1  0  0  0  0  0  0  0  0
   16.4934  -12.1760   -4.1188 H   0  0  0  1  0  0  0  0  0  0  0  0
   17.5588  -11.7871   -5.9038 C   0  0  0  1  0  0  0  0  0  0  0  0
   17.0862  -10.8442   -6.0841 H   0  0  0  1  0  0  0  0  0  0  0  0
   17.0443  -12.5537   -6.4447 H   0  0  0  1  0  0  0  0  0  0  0  0
   18.9110  -11.7286   -6.3382 O   0  0  0  1  0  0  0  0  0  0  0  0
   19.3833  -12.5018   -6.0210 H   0  0  0  1  0  0  0  0  0  0  0  0
   18.1435  -11.0437   -3.7161 O   0  0  0  1  0  0  0  0  0  0  0  0
   16.9585  -13.9465   -2.1987 O   0  0  0  1  0  0  0  0  0  0  0  0
   16.4489  -14.3882   -2.8819 H   0  0  0  1  0  0  0  0  0  0  0  0
  1  2  1  0  0  0  0
  1  3  1  0  0  0  0
  1  4  1  0  0  0  0
  1  5  1  0  0  0  0
  3  7  1  0  0  0  0
  3  8  1  0  0  0  0
  4 10  1  0  0  0  0
  5  6  1  0  0  0  0
  5 12  1  0  0  0  0
  5 14  1  0  0  0  0
  7 16  1  0  0  0  0
  7 18  2  0  0  0  0
  8  9  1  0  0  0  0
  8 19  2  0  0  0  0
 10 11  1  0  0  0  0
 10 12  1  0  0  0  0
 10 21  1  0  0  0  0
 12 13  1  0  0  0  0
 12 24  1  0  0  0  0
 14 15  1  0  0  0  0
 16 17  1  0  0  0  0
 16 26  1  0  0  0  0
 19 20  1  0  0  0  0
 19 26  1  0  0  0  0
 21 22  1  0  0  0  0
 21 23  1  0  0  0  0
 21 27  1  0  0  0  0
 24 25  1  0  0  0  0
 26 28  2  0  0  0  0
 27 29  1  0  0  0  0
 29 30  1  0  0  0  0
 29 31  1  0  0  0  0
 29 32  2  0  0  0  0
 30 33  1  0  0  0  0
 33 34  1  0  0  0  0
 33 35  2  0  0  0  0
 33 36  1  0  0  0  0
 36 37  1  0  0  0  0
 37 38  1  0  0  0  0
 37 39  1  0  0  0  0
 37 56  1  0  0  0  0
 39 40  1  0  0  0  0
 39 41  1  0  0  0  0
 39 47  1  0  0  0  0
 41 42  1  0  0  0  0
 43 44  1  0  0  0  0
 43 45  1  0  0  0  0
 43 47  1  0  0  0  0
 43 49  1  0  0  0  0
 45 46  1  0  0  0  0
 47 48  1  0  0  0  0
 47 57  1  0  0  0  0
 49 50  1  0  0  0  0
 49 51  1  0  0  0  0
 49 56  1  0  0  0  0
 51 52  1  0  0  0  0
 51 53  1  0  0  0  0
 51 54  1  0  0  0  0
 54 55  1  0  0  0  0
 57 58  1  0  0  0  0
M  BCL ATM C_TeTeTeTe H_S N_TrTrTrPi2 O_Te2Te2TeTe C_TeTeTeTe H_S C_TrTrTrPi C_TrTrTrPi H_S C_TeTeTeTe H_S C_TeTeTeTe H_S O_Te2Te2TeTe H_S N_TrTrTrPi2 H_S O_Tr2Tr2TrPi C_TrTrTrPi H_S C_TeTeTeTe H_S H_S O_Te2Te2TeTe H_S C_TrTrTrPi O_Tr2TrTrPi2 O_Tr2Tr2TrPi P_TeTeTeTePi O_Tr2TrTrPi2 O_Te2Te2TeTe O_Tr2Tr2TrPi P_TeTeTeTePi O_Te2Te2TeTe O_Tr2Tr2TrPi O_Tr2TrTrPi2 C_TeTeTeTe H_S C_TeTeTeTe H_S O_Te2Te2TeTe H_S C_TeTeTeTe H_S O_Te2Te2TeTe H_S C_TeTeTeTe H_S C_TeTeTeTe H_S C_TeTeTeTe H_S H_S O_Te2Te2TeTe H_S O_Te2Te2TeTe O_Te2Te2TeTe H_S
M  BCL BND NonConjugatedSingleBond NonConjugatedSingleBond NonConjugatedSingleBondInRing NonConjugatedSingleBondInRing ConjugatedSingleBondInRing ConjugatedSingleBondInRing NonConjugatedSingleBondInRing NonConjugatedSingleBond NonConjugatedSingleBondInRing NonConjugatedSingleBond ConjugatedSingleBondInRing ConjugatedDoubleBond NonConjugatedSingleBond ConjugatedDoubleBondInRing NonConjugatedSingleBond NonConjugatedSingleBondInRing NonConjugatedSingleBond NonConjugatedSingleBond NonConjugatedSingleBond NonConjugatedSingleBond NonConjugatedSingleBond ConjugatedSingleBondInRing NonConjugatedSingleBond ConjugatedSingleBondInRing NonConjugatedSingleBond NonConjugatedSingleBond NonConjugatedSingleBond NonConjugatedSingleBond ConjugatedDoubleBond ConjugatedSingleBond ConjugatedSingleBond ConjugatedSingleBond ConjugatedDoubleBond ConjugatedSingleBond ConjugatedSingleBond ConjugatedDoubleBond ConjugatedSingleBond NonConjugatedSingleBond NonConjugatedSingleBond NonConjugatedSingleBondInRing NonConjugatedSingleBondInRing NonConjugatedSingleBond NonConjugatedSingleBond NonConjugatedSingleBondInRing NonConjugatedSingleBond NonConjugatedSingleBond NonConjugatedSingleBond NonConjugatedSingleBondInRing NonConjugatedSingleBondInRing NonConjugatedSingleBond NonConjugatedSingleBond NonConjugatedSingleBond NonConjugatedSingleBond NonConjugatedSingleBond NonConjugatedSingleBondInRing NonConjugatedSingleBond NonConjugatedSingleBond NonConjugatedSingleBond NonConjugatedSingleBond NonConjugatedSingleBond
M  BCL CHI   1   S   5   S  10   S  12   R  29   S  33   R  37   S  39   R  43   R  47   R  49   S
M  BCL DBI - Z - - -
M  END
> <ConfClashScore>
0 

> <ConfOneFourInteractionScore>
-0.972509 

> <ConfScore>
0.0632132 

> <ConfScorePBest>
0.00768248 

> <ConfTolerance>
1.80956 

$$$$
ChEBI.****
  PyMOL2.5          3D                             0

 58 60  0  0  0  0  0  0  0  0999 V2000
   20.4088  -10.0858    1.7743 C   0  0  0  1  0  0  0  0  0  0  0  0
   20.9274  -10.1544    0.8409 H   0  0  0  1  0  0  0  0  0  0  0  0
   21.1146  -10.8908    2.7904 N   0  0  0  1  0  0  0  0  0  0  0  0
   20.3160   -8.7392    2.1892 O   0  0  0  1  0  0  0  0  0  0  0  0
   18.9761  -10.5633    1.6211 C   0  0  0  1  0  0  0  0  0  0  0  0
   18.5902  -10.3252    0.6520 H   0  0  0  1  0  0  0  0  0  0  0  0
   21.8682  -11.9703    2.3899 C   0  0  0  1  0  0  0  0  0  0  0  0
   21.0061  -10.5491    4.1055 C   0  0  0  1  0  0  0  0  0  0  0  0
   20.4049   -9.7408    4.3638 H   0  0  0  1  0  0  0  0  0  0  0  0
   18.9606   -8.4325    2.6155 C   0  0  0  1  0  0  0  0  0  0  0  0
   18.9659   -7.9524    3.5717 H   0  0  0  1  0  0  0  0  0  0  0  0
   18.2613   -9.7886    2.6981 C   0  0  0  1  0  0  0  0  0  0  0  0
   17.2157   -9.7021    2.4882 H   0  0  0  1  0  0  0  0  0  0  0  0
   18.8739  -11.9707    1.8424 O   0  0  0  1  0  0  0  0  0  0  0  0
   19.7348  -12.3776    1.7206 H   0  0  0  1  0  0  0  0  0  0  0  0
   22.5239  -12.6571    3.3976 N   0  0  0  1  0  0  0  0  0  0  0  0
   23.0618  -13.4346    3.1399 H   0  0  0  1  0  0  0  0  0  0  0  0
   21.9534  -12.3018    1.2189 O   0  0  0  1  0  0  0  0  0  0  0  0
   21.6394  -11.2095    5.0717 C   0  0  0  1  0  0  0  0  0  0  0  0
   21.5250  -10.9125    6.0618 H   0  0  0  1  0  0  0  0  0  0  0  0
   18.2826   -7.5510    1.6189 C   0  0  0  1  0  0  0  0  0  0  0  0
   19.0113   -6.9805    1.0817 H   0  0  0  1  0  0  0  0  0  0  0  0
   17.6075   -6.8880    2.1185 H   0  0  0  1  0  0  0  0  0  0  0  0
   18.4420  -10.3910    3.9806 O   0  0  0  1  0  0  0  0  0  0  0  0
   18.1508  -11.3052    3.9491 H   0  0  0  1  0  0  0  0  0  0  0  0
   22.4766  -12.3251    4.7564 C   0  0  0  1  0  0  0  0  0  0  0  0
   17.5516   -8.4021    0.7051 O   0  0  0  1  0  0  0  0  0  0  0  0
   23.1008  -12.9396    5.6056 O   0  0  0  1  0  0  0  0  0  0  0  0
   16.5819   -7.7938   -0.3488 P   0  0  0  1  0  0  0  0  0  0  0  0
   17.1971   -8.3428   -1.7284 O   0  0  0  1  0  0  0  0  0  0  0  0
   15.2218   -8.3995   -0.1291 O   0  0  0  0  0  0  0  0  0  0  0  0
   16.6747   -6.3173   -0.4155 O   0  0  0  1  0  0  0  0  0  0  0  0
   18.6212   -8.7848   -2.0011 P   0  0  0  1  0  0  0  0  0  0  0  0
   19.0167   -8.7695   -3.4564 O   0  0  0  0  0  0  0  0  0  0  0  0
   19.4935   -8.0550   -1.0742 O   0  0  0  1  0  0  0  0  0  0  0  0
   18.5918  -10.2545   -1.4398 O   0  0  0  1  0  0  0  0  0  0  0  0
   18.0471  -11.3707   -2.1766 C   0  0  0  1  0  0  0  0  0  0  0  0
   17.0222  -11.5125   -1.9041 H   0  0  0  1  0  0  0  0  0  0  0  0
   18.8411  -12.6354   -1.8431 C   0  0  0  1  0  0  0  0  0  0  0  0
   18.7099  -12.8717   -0.8078 H   0  0  0  1  0  0  0  0  0  0  0  0
   20.2257  -12.4060   -2.1081 O   0  0  0  1  0  0  0  0  0  0  0  0
   20.4722  -12.8434   -2.9263 H   0  0  0  1  0  0  0  0  0  0  0  0
   18.3566  -13.4410   -4.1711 C   0  0  0  1  0  0  0  0  0  0  0  0
   19.3652  -13.3213   -4.5076 H   0  0  0  1  0  0  0  0  0  0  0  0
   17.7337  -14.4814   -4.9041 O   0  0  0  1  0  0  0  0  0  0  0  0
   17.4740  -14.1535   -5.7682 H   0  0  0  1  0  0  0  0  0  0  0  0
   18.3569  -13.7974   -2.6861 C   0  0  0  1  0  0  0  0  0  0  0  0
   19.0031  -14.6356   -2.5287 H   0  0  0  1  0  0  0  0  0  0  0  0
   17.5917  -12.1389   -4.3904 C   0  0  0  1  0  0  0  0  0  0  0  0
   16.5643  -12.2864   -4.1306 H   0  0  0  1  0  0  0  0  0  0  0  0
   17.6908  -11.7483   -5.8244 C   0  0  0  1  0  0  0  0  0  0  0  0
   17.1774  -10.8184   -5.9533 H   0  0  0  1  0  0  0  0  0  0  0  0
   17.2119  -12.5048   -6.4102 H   0  0  0  1  0  0  0  0  0  0  0  0
   19.0103  -11.5922   -6.3005 O   0  0  0  1  0  0  0  0  0  0  0  0
   19.4687  -10.9395   -5.7662 H   0  0  0  1  0  0  0  0  0  0  0  0
   18.1331  -11.1000   -3.5845 O   0  0  0  1  0  0  0  0  0  0  0  0
   17.0280  -14.1387   -2.2890 O   0  0  0  1  0  0  0  0  0  0  0  0
   16.4840  -13.3478   -2.2769 H   0  0  0  1  0  0  0  0  0  0  0  0
  1  2  1  0  0  0  0
  1  3  1  0  0  0  0
  1  4  1  0  0  0  0
  1  5  1  0  0  0  0
  3  7  1  0  0  0  0
  3  8  1  0  0  0  0
  4 10  1  0  0  0  0
  5  6  1  0  0  0  0
  5 12  1  0  0  0  0
  5 14  1  0  0  0  0
  7 16  1  0  0  0  0
  7 18  2  0  0  0  0
  8  9  1  0  0  0  0
  8 19  2  0  0  0  0
 10 11  1  0  0  0  0
 10 12  1  0  0  0  0
 10 21  1  0  0  0  0
 12 13  1  0  0  0  0
 12 24  1  0  0  0  0
 14 15  1  0  0  0  0
 16 17  1  0  0  0  0
 16 26  1  0  0  0  0
 19 20  1  0  0  0  0
 19 26  1  0  0  0  0
 21 22  1  0  0  0  0
 21 23  1  0  0  0  0
 21 27  1  0  0  0  0
 24 25  1  0  0  0  0
 26 28  2  0  0  0  0
 27 29  1  0  0  0  0
 29 30  1  0  0  0  0
 29 31  1  0  0  0  0
 29 32  2  0  0  0  0
 30 33  1  0  0  0  0
 33 34  1  0  0  0  0
 33 35  2  0  0  0  0
 33 36  1  0  0  0  0
 36 37  1  0  0  0  0
 37 38  1  0  0  0  0
 37 39  1  0  0  0  0
 37 56  1  0  0  0  0
 39 40  1  0  0  0  0
 39 41  1  0  0  0  0
 39 47  1  0  0  0  0
 41 42  1  0  0  0  0
 43 44  1  0  0  0  0
 43 45  1  0  0  0  0
 43 47  1  0  0  0  0
 43 49  1  0  0  0  0
 45 46  1  0  0  0  0
 47 48  1  0  0  0  0
 47 57  1  0  0  0  0
 49 50  1  0  0  0  0
 49 51  1  0  0  0  0
 49 56  1  0  0  0  0
 51 52  1  0  0  0  0
 51 53  1  0  0  0  0
 51 54  1  0  0  0  0
 54 55  1  0  0  0  0
 57 58  1  0  0  0  0
M  BCL ATM C_TeTeTeTe H_S N_TrTrTrPi2 O_Te2Te2TeTe C_TeTeTeTe H_S C_TrTrTrPi C_TrTrTrPi H_S C_TeTeTeTe H_S C_TeTeTeTe H_S O_Te2Te2TeTe H_S N_TrTrTrPi2 H_S O_Tr2Tr2TrPi C_TrTrTrPi H_S C_TeTeTeTe H_S H_S O_Te2Te2TeTe H_S C_TrTrTrPi O_Tr2TrTrPi2 O_Tr2Tr2TrPi P_TeTeTeTePi O_Tr2TrTrPi2 O_Te2Te2TeTe O_Tr2Tr2TrPi P_TeTeTeTePi O_Te2Te2TeTe O_Tr2Tr2TrPi O_Tr2TrTrPi2 C_TeTeTeTe H_S C_TeTeTeTe H_S O_Te2Te2TeTe H_S C_TeTeTeTe H_S O_Te2Te2TeTe H_S C_TeTeTeTe H_S C_TeTeTeTe H_S C_TeTeTeTe H_S H_S O_Te2Te2TeTe H_S O_Te2Te2TeTe O_Te2Te2TeTe H_S
M  BCL BND NonConjugatedSingleBond NonConjugatedSingleBond NonConjugatedSingleBondInRing NonConjugatedSingleBondInRing ConjugatedSingleBondInRing ConjugatedSingleBondInRing NonConjugatedSingleBondInRing NonConjugatedSingleBond NonConjugatedSingleBondInRing NonConjugatedSingleBond ConjugatedSingleBondInRing ConjugatedDoubleBond NonConjugatedSingleBond ConjugatedDoubleBondInRing NonConjugatedSingleBond NonConjugatedSingleBondInRing NonConjugatedSingleBond NonConjugatedSingleBond NonConjugatedSingleBond NonConjugatedSingleBond NonConjugatedSingleBond ConjugatedSingleBondInRing NonConjugatedSingleBond ConjugatedSingleBondInRing NonConjugatedSingleBond NonConjugatedSingleBond NonConjugatedSingleBond NonConjugatedSingleBond ConjugatedDoubleBond ConjugatedSingleBond ConjugatedSingleBond ConjugatedSingleBond ConjugatedDoubleBond ConjugatedSingleBond ConjugatedSingleBond ConjugatedDoubleBond ConjugatedSingleBond NonConjugatedSingleBond NonConjugatedSingleBond NonConjugatedSingleBondInRing NonConjugatedSingleBondInRing NonConjugatedSingleBond NonConjugatedSingleBond NonConjugatedSingleBondInRing NonConjugatedSingleBond NonConjugatedSingleBond NonConjugatedSingleBond NonConjugatedSingleBondInRing NonConjugatedSingleBondInRing NonConjugatedSingleBond NonConjugatedSingleBond NonConjugatedSingleBond NonConjugatedSingleBond NonConjugatedSingleBond NonConjugatedSingleBondInRing NonConjugatedSingleBond NonConjugatedSingleBond NonConjugatedSingleBond NonConjugatedSingleBond NonConjugatedSingleBond
M  BCL CHI   1   S   5   S  10   S  12   R  29   S  33   R  37   S  39   R  43   R  47   R  49   S
M  BCL DBI - Z - - -
M  END
> <ConfClashScore>
0 

> <ConfOneFourInteractionScore>
-0.971853 

> <ConfScore>
0.0684615 

> <ConfScorePBest>
0.00757948 

> <ConfTolerance>
1.71828 

$$$$
ChEBI.****
  PyMOL2.5          3D                             0

 58 60  0  0  0  0  0  0  0  0999 V2000
   17.8918   -1.9037    0.8342 C   0  0  0  1  0  0  0  0  0  0  0  0
   18.7597   -1.9659    1.4569 H   0  0  0  1  0  0  0  0  0  0  0  0
   17.2314   -0.6137    1.0437 N   0  0  0  1  0  0  0  0  0  0  0  0
   18.2495   -2.0794   -0.5704 O   0  0  0  1  0  0  0  0  0  0  0  0
   16.9428   -3.0441    1.1232 C   0  0  0  1  0  0  0  0  0  0  0  0
   16.9873   -3.3266    2.1543 H   0  0  0  1  0  0  0  0  0  0  0  0
   17.1252   -0.1366    2.3269 C   0  0  0  1  0  0  0  0  0  0  0  0
   16.7390    0.0726   -0.0774 C   0  0  0  1  0  0  0  0  0  0  0  0
   16.8498   -0.3080   -1.0390 H   0  0  0  1  0  0  0  0  0  0  0  0
   18.0719   -3.4116   -0.9615 C   0  0  0  1  0  0  0  0  0  0  0  0
   17.4148   -3.4581   -1.8046 H   0  0  0  1  0  0  0  0  0  0  0  0
   17.4567   -4.1749    0.2221 C   0  0  0  1  0  0  0  0  0  0  0  0
   18.1940   -4.7645    0.7258 H   0  0  0  1  0  0  0  0  0  0  0  0
   15.6013   -2.6903    0.7833 O   0  0  0  1  0  0  0  0  0  0  0  0
   15.1707   -2.2967    1.5457 H   0  0  0  1  0  0  0  0  0  0  0  0
   16.4754    1.0562    2.4932 N   0  0  0  1  0  0  0  0  0  0  0  0
   16.3913    1.4175    3.4003 H   0  0  0  1  0  0  0  0  0  0  0  0
   17.5888   -0.7482    3.2753 O   0  0  0  1  0  0  0  0  0  0  0  0
   16.1029    1.2717    0.1523 C   0  0  0  1  0  0  0  0  0  0  0  0
   15.7449    1.8084   -0.6634 H   0  0  0  1  0  0  0  0  0  0  0  0
   19.3742   -4.0067   -1.3186 C   0  0  0  1  0  0  0  0  0  0  0  0
   20.0361   -3.9346   -0.4810 H   0  0  0  1  0  0  0  0  0  0  0  0
   19.7892   -3.4739   -2.1486 H   0  0  0  1  0  0  0  0  0  0  0  0
   16.3897   -5.0138   -0.2073 O   0  0  0  1  0  0  0  0  0  0  0  0
   16.2693   -5.7274    0.4234 H   0  0  0  1  0  0  0  0  0  0  0  0
   15.9183    1.7952    1.4209 C   0  0  0  1  0  0  0  0  0  0  0  0
   19.2114   -5.4017   -1.6799 O   0  0  0  1  0  0  0  0  0  0  0  0
   15.3092    2.8362    1.6049 O   0  0  0  1  0  0  0  0  0  0  0  0
   20.1645   -6.5222   -1.0645 P   0  0  0  1  0  0  0  0  0  0  0  0
   19.5604   -7.9798   -1.3426 O   0  0  0  1  0  0  0  0  0  0  0  0
   21.5353   -6.3223   -1.7838 O   0  0  0  0  0  0  0  0  0  0  0  0
   20.3070   -6.1740    0.3889 O   0  0  0  1  0  0  0  0  0  0  0  0
   19.8141   -9.2936   -2.2239 P   0  0  0  1  0  0  0  0  0  0  0  0
   19.5113   -9.0022   -3.6429 O   0  0  0  0  0  0  0  0  0  0  0  0
   21.1233   -9.8668   -1.8756 O   0  0  0  1  0  0  0  0  0  0  0  0
   18.6775  -10.1566   -1.5609 O   0  0  0  1  0  0  0  0  0  0  0  0
   18.0652  -11.2454   -2.2763 C   0  0  0  1  0  0  0  0  0  0  0  0
   17.0360  -11.3241   -1.9942 H   0  0  0  1  0  0  0  0  0  0  0  0
   18.7875  -12.5495   -1.9317 C   0  0  0  1  0  0  0  0  0  0  0  0
   18.6514  -12.7643   -0.8923 H   0  0  0  1  0  0  0  0  0  0  0  0
   20.1809  -12.4040   -2.2100 O   0  0  0  1  0  0  0  0  0  0  0  0
   20.5638  -13.2662   -2.3879 H   0  0  0  1  0  0  0  0  0  0  0  0
   18.2382  -13.3560   -4.2449 C   0  0  0  1  0  0  0  0  0  0  0  0
   19.2493  -13.2993   -4.5905 H   0  0  0  1  0  0  0  0  0  0  0  0
   17.5448  -14.3762   -4.9649 O   0  0  0  1  0  0  0  0  0  0  0  0
   17.9919  -14.5406   -5.7983 H   0  0  0  1  0  0  0  0  0  0  0  0
   18.2301  -13.6924   -2.7552 C   0  0  0  1  0  0  0  0  0  0  0  0
   18.8281  -14.5644   -2.5913 H   0  0  0  1  0  0  0  0  0  0  0  0
   17.5480  -12.0148   -4.4760 C   0  0  0  1  0  0  0  0  0  0  0  0
   16.5159  -12.0992   -4.2066 H   0  0  0  1  0  0  0  0  0  0  0  0
   17.6586  -11.6463   -5.9275 C   0  0  0  1  0  0  0  0  0  0  0  0
   18.6003  -11.1693   -6.1026 H   0  0  0  1  0  0  0  0  0  0  0  0
   16.8653  -10.9763   -6.1859 H   0  0  0  1  0  0  0  0  0  0  0  0
   17.5668  -12.8171   -6.7265 O   0  0  0  1  0  0  0  0  0  0  0  0
   18.4487  -13.1140   -6.9625 H   0  0  0  1  0  0  0  0  0  0  0  0
   18.1551  -10.9986   -3.6882 O   0  0  0  1  0  0  0  0  0  0  0  0
   16.8870  -13.9510   -2.3437 O   0  0  0  1  0  0  0  0  0  0  0  0
   16.8820  -14.2356   -1.4268 H   0  0  0  1  0  0  0  0  0  0  0  0
  1  2  1  0  0  0  0
  1  3  1  0  0  0  0
  1  4  1  0  0  0  0
  1  5  1  0  0  0  0
  3  7  1  0  0  0  0
  3  8  1  0  0  0  0
  4 10  1  0  0  0  0
  5  6  1  0  0  0  0
  5 12  1  0  0  0  0
  5 14  1  0  0  0  0
  7 16  1  0  0  0  0
  7 18  2  0  0  0  0
  8  9  1  0  0  0  0
  8 19  2  0  0  0  0
 10 11  1  0  0  0  0
 10 12  1  0  0  0  0
 10 21  1  0  0  0  0
 12 13  1  0  0  0  0
 12 24  1  0  0  0  0
 14 15  1  0  0  0  0
 16 17  1  0  0  0  0
 16 26  1  0  0  0  0
 19 20  1  0  0  0  0
 19 26  1  0  0  0  0
 21 22  1  0  0  0  0
 21 23  1  0  0  0  0
 21 27  1  0  0  0  0
 24 25  1  0  0  0  0
 26 28  2  0  0  0  0
 27 29  1  0  0  0  0
 29 30  1  0  0  0  0
 29 31  1  0  0  0  0
 29 32  2  0  0  0  0
 30 33  1  0  0  0  0
 33 34  1  0  0  0  0
 33 35  2  0  0  0  0
 33 36  1  0  0  0  0
 36 37  1  0  0  0  0
 37 38  1  0  0  0  0
 37 39  1  0  0  0  0
 37 56  1  0  0  0  0
 39 40  1  0  0  0  0
 39 41  1  0  0  0  0
 39 47  1  0  0  0  0
 41 42  1  0  0  0  0
 43 44  1  0  0  0  0
 43 45  1  0  0  0  0
 43 47  1  0  0  0  0
 43 49  1  0  0  0  0
 45 46  1  0  0  0  0
 47 48  1  0  0  0  0
 47 57  1  0  0  0  0
 49 50  1  0  0  0  0
 49 51  1  0  0  0  0
 49 56  1  0  0  0  0
 51 52  1  0  0  0  0
 51 53  1  0  0  0  0
 51 54  1  0  0  0  0
 54 55  1  0  0  0  0
 57 58  1  0  0  0  0
M  BCL ATM C_TeTeTeTe H_S N_TrTrTrPi2 O_Te2Te2TeTe C_TeTeTeTe H_S C_TrTrTrPi C_TrTrTrPi H_S C_TeTeTeTe H_S C_TeTeTeTe H_S O_Te2Te2TeTe H_S N_TrTrTrPi2 H_S O_Tr2Tr2TrPi C_TrTrTrPi H_S C_TeTeTeTe H_S H_S O_Te2Te2TeTe H_S C_TrTrTrPi O_Tr2TrTrPi2 O_Tr2Tr2TrPi P_TeTeTeTePi O_Tr2TrTrPi2 O_Te2Te2TeTe O_Tr2Tr2TrPi P_TeTeTeTePi O_Te2Te2TeTe O_Tr2Tr2TrPi O_Tr2TrTrPi2 C_TeTeTeTe H_S C_TeTeTeTe H_S O_Te2Te2TeTe H_S C_TeTeTeTe H_S O_Te2Te2TeTe H_S C_TeTeTeTe H_S C_TeTeTeTe H_S C_TeTeTeTe H_S H_S O_Te2Te2TeTe H_S O_Te2Te2TeTe O_Te2Te2TeTe H_S
M  BCL BND NonConjugatedSingleBond NonConjugatedSingleBond NonConjugatedSingleBondInRing NonConjugatedSingleBondInRing ConjugatedSingleBondInRing ConjugatedSingleBondInRing NonConjugatedSingleBondInRing NonConjugatedSingleBond NonConjugatedSingleBondInRing NonConjugatedSingleBond ConjugatedSingleBondInRing ConjugatedDoubleBond NonConjugatedSingleBond ConjugatedDoubleBondInRing NonConjugatedSingleBond NonConjugatedSingleBondInRing NonConjugatedSingleBond NonConjugatedSingleBond NonConjugatedSingleBond NonConjugatedSingleBond NonConjugatedSingleBond ConjugatedSingleBondInRing NonConjugatedSingleBond ConjugatedSingleBondInRing NonConjugatedSingleBond NonConjugatedSingleBond NonConjugatedSingleBond NonConjugatedSingleBond ConjugatedDoubleBond ConjugatedSingleBond ConjugatedSingleBond ConjugatedSingleBond ConjugatedDoubleBond ConjugatedSingleBond ConjugatedSingleBond ConjugatedDoubleBond ConjugatedSingleBond NonConjugatedSingleBond NonConjugatedSingleBond NonConjugatedSingleBondInRing NonConjugatedSingleBondInRing NonConjugatedSingleBond NonConjugatedSingleBond NonConjugatedSingleBondInRing NonConjugatedSingleBond NonConjugatedSingleBond NonConjugatedSingleBond NonConjugatedSingleBondInRing NonConjugatedSingleBondInRing NonConjugatedSingleBond NonConjugatedSingleBond NonConjugatedSingleBond NonConjugatedSingleBond NonConjugatedSingleBond NonConjugatedSingleBondInRing NonConjugatedSingleBond NonConjugatedSingleBond NonConjugatedSingleBond NonConjugatedSingleBond NonConjugatedSingleBond
M  BCL CHI   1   S   5   S  10   S  12   R  29   S  33   R  37   S  39   R  43   R  47   R  49   S
M  BCL DBI - Z - - -
M  END
> <ConfClashScore>
0 

> <ConfOneFourInteractionScore>
-0.970366 

> <ConfScore>
0.0732142 

> <ConfScorePBest>
0.00747648 

> <ConfTolerance>
1.95985 

$$$$
ChEBI.****
  PyMOL2.5          3D                             0

 58 60  0  0  0  0  0  0  0  0999 V2000
   15.8009  -12.1759    2.5311 C   0  0  0  1  0  0  0  0  0  0  0  0
   16.8014  -12.4265    2.2463 H   0  0  0  1  0  0  0  0  0  0  0  0
   15.7906  -11.7037    3.9237 N   0  0  0  1  0  0  0  0  0  0  0  0
   15.3017  -11.1850    1.6899 O   0  0  0  1  0  0  0  0  0  0  0  0
   14.8889  -13.4100    2.3879 C   0  0  0  1  0  0  0  0  0  0  0  0
   15.4401  -14.3173    2.5211 H   0  0  0  1  0  0  0  0  0  0  0  0
   15.8448  -12.6249    4.9412 C   0  0  0  1  0  0  0  0  0  0  0  0
   15.7273  -10.3588    4.1692 C   0  0  0  1  0  0  0  0  0  0  0  0
   15.6551   -9.7110    3.3588 H   0  0  0  1  0  0  0  0  0  0  0  0
   14.3911  -11.7561    0.7164 C   0  0  0  1  0  0  0  0  0  0  0  0
   13.4075  -11.3587    0.8560 H   0  0  0  1  0  0  0  0  0  0  0  0
   14.3839  -13.2725    0.9457 C   0  0  0  1  0  0  0  0  0  0  0  0
   15.0400  -13.7674    0.2605 H   0  0  0  1  0  0  0  0  0  0  0  0
   13.8087  -13.3669    3.3213 O   0  0  0  1  0  0  0  0  0  0  0  0
   13.1762  -14.0580    3.1117 H   0  0  0  1  0  0  0  0  0  0  0  0
   15.8576  -12.1031    6.2285 N   0  0  0  1  0  0  0  0  0  0  0  0
   15.8927  -12.7351    6.9768 H   0  0  0  1  0  0  0  0  0  0  0  0
   15.8794  -13.8256    4.7278 O   0  0  0  1  0  0  0  0  0  0  0  0
   15.7540   -9.8335    5.4087 C   0  0  0  1  0  0  0  0  0  0  0  0
   15.7252   -8.8041    5.5542 H   0  0  0  1  0  0  0  0  0  0  0  0
   14.8611  -11.4490   -0.6673 C   0  0  0  1  0  0  0  0  0  0  0  0
   14.3264  -12.0475   -1.3750 H   0  0  0  1  0  0  0  0  0  0  0  0
   15.9089  -11.6497   -0.7493 H   0  0  0  1  0  0  0  0  0  0  0  0
   13.0651  -13.8046    0.8118 O   0  0  0  1  0  0  0  0  0  0  0  0
   12.5526  -13.5917    1.5952 H   0  0  0  1  0  0  0  0  0  0  0  0
   15.8239  -10.7400    6.5296 C   0  0  0  1  0  0  0  0  0  0  0  0
   14.6071  -10.0464   -0.9164 O   0  0  0  1  0  0  0  0  0  0  0  0
   15.8520  -10.3357    7.6823 O   0  0  0  1  0  0  0  0  0  0  0  0
   15.8553   -9.0914   -1.3469 P   0  0  0  1  0  0  0  0  0  0  0  0
   16.8078   -9.3664   -0.0827 O   0  0  0  1  0  0  0  0  0  0  0  0
   16.4723   -9.5874   -2.6005 O   0  0  0  0  0  0  0  0  0  0  0  0
   15.3595   -7.7545   -1.2190 O   0  0  0  1  0  0  0  0  0  0  0  0
   18.3310   -9.9914    0.0513 P   0  0  0  1  0  0  0  0  0  0  0  0
   19.0906   -8.8108    0.6356 O   0  0  0  0  0  0  0  0  0  0  0  0
   18.2231  -11.1658    0.9913 O   0  0  0  1  0  0  0  0  0  0  0  0
   18.8281  -10.3537   -1.3970 O   0  0  0  1  0  0  0  0  0  0  0  0
   18.1573  -11.3505   -2.1751 C   0  0  0  1  0  0  0  0  0  0  0  0
   17.1213  -11.3742   -1.9088 H   0  0  0  1  0  0  0  0  0  0  0  0
   18.7844  -12.7184   -1.8979 C   0  0  0  1  0  0  0  0  0  0  0  0
   18.6192  -12.9813   -0.8739 H   0  0  0  1  0  0  0  0  0  0  0  0
   20.1882  -12.6534   -2.1530 O   0  0  0  1  0  0  0  0  0  0  0  0
   20.3632  -11.9782   -2.8126 H   0  0  0  1  0  0  0  0  0  0  0  0
   18.2147  -13.3543   -4.2588 C   0  0  0  1  0  0  0  0  0  0  0  0
   19.2320  -13.3478   -4.5901 H   0  0  0  1  0  0  0  0  0  0  0  0
   17.4630  -14.2836   -5.0438 O   0  0  0  1  0  0  0  0  0  0  0  0
   18.0384  -14.6926   -5.6943 H   0  0  0  1  0  0  0  0  0  0  0  0
   18.1625  -13.7724   -2.7909 C   0  0  0  1  0  0  0  0  0  0  0  0
   18.6975  -14.6912   -2.6707 H   0  0  0  1  0  0  0  0  0  0  0  0
   17.6205  -11.9580   -4.4204 C   0  0  0  1  0  0  0  0  0  0  0  0
   16.5813  -11.9865   -4.1670 H   0  0  0  1  0  0  0  0  0  0  0  0
   17.7753  -11.5208   -5.8359 C   0  0  0  1  0  0  0  0  0  0  0  0
   18.8150  -11.3473   -6.0198 H   0  0  0  1  0  0  0  0  0  0  0  0
   17.2326  -10.6076   -5.9643 H   0  0  0  1  0  0  0  0  0  0  0  0
   17.3081  -12.4486   -6.7914 O   0  0  0  1  0  0  0  0  0  0  0  0
   16.9521  -11.9774   -7.5483 H   0  0  0  1  0  0  0  0  0  0  0  0
   18.2839  -11.0317   -3.5698 O   0  0  0  1  0  0  0  0  0  0  0  0
   16.7992  -13.9609   -2.4087 O   0  0  0  1  0  0  0  0  0  0  0  0
   16.7616  -14.4750   -1.5988 H   0  0  0  1  0  0  0  0  0  0  0  0
  1  2  1  0  0  0  0
  1  3  1  0  0  0  0
  1  4  1  0  0  0  0
  1  5  1  0  0  0  0
  3  7  1  0  0  0  0
  3  8  1  0  0  0  0
  4 10  1  0  0  0  0
  5  6  1  0  0  0  0
  5 12  1  0  0  0  0
  5 14  1  0  0  0  0
  7 16  1  0  0  0  0
  7 18  2  0  0  0  0
  8  9  1  0  0  0  0
  8 19  2  0  0  0  0
 10 11  1  0  0  0  0
 10 12  1  0  0  0  0
 10 21  1  0  0  0  0
 12 13  1  0  0  0  0
 12 24  1  0  0  0  0
 14 15  1  0  0  0  0
 16 17  1  0  0  0  0
 16 26  1  0  0  0  0
 19 20  1  0  0  0  0
 19 26  1  0  0  0  0
 21 22  1  0  0  0  0
 21 23  1  0  0  0  0
 21 27  1  0  0  0  0
 24 25  1  0  0  0  0
 26 28  2  0  0  0  0
 27 29  1  0  0  0  0
 29 30  1  0  0  0  0
 29 31  1  0  0  0  0
 29 32  2  0  0  0  0
 30 33  1  0  0  0  0
 33 34  1  0  0  0  0
 33 35  2  0  0  0  0
 33 36  1  0  0  0  0
 36 37  1  0  0  0  0
 37 38  1  0  0  0  0
 37 39  1  0  0  0  0
 37 56  1  0  0  0  0
 39 40  1  0  0  0  0
 39 41  1  0  0  0  0
 39 47  1  0  0  0  0
 41 42  1  0  0  0  0
 43 44  1  0  0  0  0
 43 45  1  0  0  0  0
 43 47  1  0  0  0  0
 43 49  1  0  0  0  0
 45 46  1  0  0  0  0
 47 48  1  0  0  0  0
 47 57  1  0  0  0  0
 49 50  1  0  0  0  0
 49 51  1  0  0  0  0
 49 56  1  0  0  0  0
 51 52  1  0  0  0  0
 51 53  1  0  0  0  0
 51 54  1  0  0  0  0
 54 55  1  0  0  0  0
 57 58  1  0  0  0  0
M  BCL ATM C_TeTeTeTe H_S N_TrTrTrPi2 O_Te2Te2TeTe C_TeTeTeTe H_S C_TrTrTrPi C_TrTrTrPi H_S C_TeTeTeTe H_S C_TeTeTeTe H_S O_Te2Te2TeTe H_S N_TrTrTrPi2 H_S O_Tr2Tr2TrPi C_TrTrTrPi H_S C_TeTeTeTe H_S H_S O_Te2Te2TeTe H_S C_TrTrTrPi O_Tr2TrTrPi2 O_Tr2Tr2TrPi P_TeTeTeTePi O_Tr2TrTrPi2 O_Te2Te2TeTe O_Tr2Tr2TrPi P_TeTeTeTePi O_Te2Te2TeTe O_Tr2Tr2TrPi O_Tr2TrTrPi2 C_TeTeTeTe H_S C_TeTeTeTe H_S O_Te2Te2TeTe H_S C_TeTeTeTe H_S O_Te2Te2TeTe H_S C_TeTeTeTe H_S C_TeTeTeTe H_S C_TeTeTeTe H_S H_S O_Te2Te2TeTe H_S O_Te2Te2TeTe O_Te2Te2TeTe H_S
M  BCL BND NonConjugatedSingleBond NonConjugatedSingleBond NonConjugatedSingleBondInRing NonConjugatedSingleBondInRing ConjugatedSingleBondInRing ConjugatedSingleBondInRing NonConjugatedSingleBondInRing NonConjugatedSingleBond NonConjugatedSingleBondInRing NonConjugatedSingleBond ConjugatedSingleBondInRing ConjugatedDoubleBond NonConjugatedSingleBond ConjugatedDoubleBondInRing NonConjugatedSingleBond NonConjugatedSingleBondInRing NonConjugatedSingleBond NonConjugatedSingleBond NonConjugatedSingleBond NonConjugatedSingleBond NonConjugatedSingleBond ConjugatedSingleBondInRing NonConjugatedSingleBond ConjugatedSingleBondInRing NonConjugatedSingleBond NonConjugatedSingleBond NonConjugatedSingleBond NonConjugatedSingleBond ConjugatedDoubleBond ConjugatedSingleBond ConjugatedSingleBond ConjugatedSingleBond ConjugatedDoubleBond ConjugatedSingleBond ConjugatedSingleBond ConjugatedDoubleBond ConjugatedSingleBond NonConjugatedSingleBond NonConjugatedSingleBond NonConjugatedSingleBondInRing NonConjugatedSingleBondInRing NonConjugatedSingleBond NonConjugatedSingleBond NonConjugatedSingleBondInRing NonConjugatedSingleBond NonConjugatedSingleBond NonConjugatedSingleBond NonConjugatedSingleBondInRing NonConjugatedSingleBondInRing NonConjugatedSingleBond NonConjugatedSingleBond NonConjugatedSingleBond NonConjugatedSingleBond NonConjugatedSingleBond NonConjugatedSingleBondInRing NonConjugatedSingleBond NonConjugatedSingleBond NonConjugatedSingleBond NonConjugatedSingleBond NonConjugatedSingleBond
M  BCL CHI   1   S   5   S  10   S  12   R  29   S  33   R  37   S  39   R  43   R  47   R  49   S
M  BCL DBI - Z - - -
M  END
> <ConfClashScore>
0.00162727 

> <ConfOneFourInteractionScore>
-0.974651 

> <ConfScore>
0.104178 

> <ConfScorePBest>
0.00737347 

> <ConfTolerance>
2.06958 

$$$$
ChEBI.****
  PyMOL2.5          3D                             0

 58 60  0  0  0  0  0  0  0  0999 V2000
   22.7216   -4.9096    0.6396 C   0  0  0  1  0  0  0  0  0  0  0  0
   22.4701   -5.4984   -0.2177 H   0  0  0  1  0  0  0  0  0  0  0  0
   24.0336   -4.2780    0.4336 N   0  0  0  1  0  0  0  0  0  0  0  0
   21.7112   -3.8982    0.8634 O   0  0  0  1  0  0  0  0  0  0  0  0
   22.7502   -5.7789    1.8791 C   0  0  0  1  0  0  0  0  0  0  0  0
   22.4834   -6.7865    1.6374 H   0  0  0  1  0  0  0  0  0  0  0  0
   24.7161   -4.5102   -0.7385 C   0  0  0  1  0  0  0  0  0  0  0  0
   24.5476   -3.4751    1.4077 C   0  0  0  1  0  0  0  0  0  0  0  0
   24.0080   -3.3489    2.2878 H   0  0  0  1  0  0  0  0  0  0  0  0
   20.8335   -4.4059    1.8805 C   0  0  0  1  0  0  0  0  0  0  0  0
   20.3489   -3.6026    2.3951 H   0  0  0  1  0  0  0  0  0  0  0  0
   21.7265   -5.1674    2.8131 C   0  0  0  1  0  0  0  0  0  0  0  0
   21.1807   -5.9255    3.3349 H   0  0  0  1  0  0  0  0  0  0  0  0
   24.0485   -5.7592    2.4758 O   0  0  0  1  0  0  0  0  0  0  0  0
   24.7174   -5.8180    1.7897 H   0  0  0  1  0  0  0  0  0  0  0  0
   25.9296   -3.8569   -0.8710 N   0  0  0  1  0  0  0  0  0  0  0  0
   26.4393   -4.0108   -1.6938 H   0  0  0  1  0  0  0  0  0  0  0  0
   24.2788   -5.2464   -1.6075 O   0  0  0  1  0  0  0  0  0  0  0  0
   25.7131   -2.8463    1.2766 C   0  0  0  1  0  0  0  0  0  0  0  0
   26.0656   -2.2447    2.0481 H   0  0  0  1  0  0  0  0  0  0  0  0
   19.8043   -5.3086    1.2839 C   0  0  0  1  0  0  0  0  0  0  0  0
   19.1966   -4.7621    0.5933 H   0  0  0  1  0  0  0  0  0  0  0  0
   19.1873   -5.7182    2.0562 H   0  0  0  1  0  0  0  0  0  0  0  0
   22.3491   -4.2935    3.7559 O   0  0  0  1  0  0  0  0  0  0  0  0
   23.2993   -4.2997    3.6197 H   0  0  0  1  0  0  0  0  0  0  0  0
   26.4835   -2.9933    0.0809 C   0  0  0  1  0  0  0  0  0  0  0  0
   20.5004   -6.3725    0.5931 O   0  0  0  1  0  0  0  0  0  0  0  0
   27.5427   -2.4104   -0.0959 O   0  0  0  1  0  0  0  0  0  0  0  0
   19.8211   -7.0211   -0.6800 P   0  0  0  1  0  0  0  0  0  0  0  0
   18.9565   -8.3007   -0.1985 O   0  0  0  1  0  0  0  0  0  0  0  0
   18.7882   -6.0539   -1.2532 O   0  0  0  0  0  0  0  0  0  0  0  0
   20.9128   -7.3728   -1.6317 O   0  0  0  1  0  0  0  0  0  0  0  0
   17.8879   -9.0526   -1.0876 P   0  0  0  1  0  0  0  0  0  0  0  0
   16.6478   -9.3879   -0.3149 O   0  0  0  0  0  0  0  0  0  0  0  0
   17.6858   -8.2304   -2.3230 O   0  0  0  1  0  0  0  0  0  0  0  0
   18.6795  -10.3621   -1.4398 O   0  0  0  1  0  0  0  0  0  0  0  0
   18.1106  -11.4458   -2.1919 C   0  0  0  1  0  0  0  0  0  0  0  0
   17.0941  -11.5935   -1.8923 H   0  0  0  1  0  0  0  0  0  0  0  0
   18.9095  -12.7233   -1.9256 C   0  0  0  1  0  0  0  0  0  0  0  0
   18.8097  -12.9935   -0.8951 H   0  0  0  1  0  0  0  0  0  0  0  0
   20.2861  -12.4892   -2.2260 O   0  0  0  1  0  0  0  0  0  0  0  0
   20.6214  -11.7857   -1.6654 H   0  0  0  1  0  0  0  0  0  0  0  0
   18.3494  -13.4495   -4.2627 C   0  0  0  1  0  0  0  0  0  0  0  0
   19.3475  -13.3217   -4.6265 H   0  0  0  1  0  0  0  0  0  0  0  0
   17.6946  -14.4712   -5.0160 O   0  0  0  1  0  0  0  0  0  0  0  0
   16.9023  -14.1120   -5.4220 H   0  0  0  1  0  0  0  0  0  0  0  0
   18.3946  -13.8551   -2.7910 C   0  0  0  1  0  0  0  0  0  0  0  0
   19.0420  -14.6999   -2.6818 H   0  0  0  1  0  0  0  0  0  0  0  0
   17.5833  -12.1385   -4.4146 C   0  0  0  1  0  0  0  0  0  0  0  0
   16.5638  -12.2916   -4.1278 H   0  0  0  1  0  0  0  0  0  0  0  0
   17.6396  -11.6972   -5.8488 C   0  0  0  1  0  0  0  0  0  0  0  0
   16.8096  -11.0545   -6.0560 H   0  0  0  1  0  0  0  0  0  0  0  0
   17.5952  -12.5549   -6.4869 H   0  0  0  1  0  0  0  0  0  0  0  0
   18.8521  -10.9942   -6.0860 O   0  0  0  1  0  0  0  0  0  0  0  0
   19.1060  -11.0946   -7.0064 H   0  0  0  1  0  0  0  0  0  0  0  0
   18.1537  -11.1287   -3.5920 O   0  0  0  1  0  0  0  0  0  0  0  0
   17.0774  -14.2055   -2.3641 O   0  0  0  1  0  0  0  0  0  0  0  0
   16.4323  -13.7204   -2.8839 H   0  0  0  1  0  0  0  0  0  0  0  0
  1  2  1  0  0  0  0
  1  3  1  0  0  0  0
  1  4  1  0  0  0  0
  1  5  1  0  0  0  0
  3  7  1  0  0  0  0
  3  8  1  0  0  0  0
  4 10  1  0  0  0  0
  5  6  1  0  0  0  0
  5 12  1  0  0  0  0
  5 14  1  0  0  0  0
  7 16  1  0  0  0  0
  7 18  2  0  0  0  0
  8  9  1  0  0  0  0
  8 19  2  0  0  0  0
 10 11  1  0  0  0  0
 10 12  1  0  0  0  0
 10 21  1  0  0  0  0
 12 13  1  0  0  0  0
 12 24  1  0  0  0  0
 14 15  1  0  0  0  0
 16 17  1  0  0  0  0
 16 26  1  0  0  0  0
 19 20  1  0  0  0  0
 19 26  1  0  0  0  0
 21 22  1  0  0  0  0
 21 23  1  0  0  0  0
 21 27  1  0  0  0  0
 24 25  1  0  0  0  0
 26 28  2  0  0  0  0
 27 29  1  0  0  0  0
 29 30  1  0  0  0  0
 29 31  1  0  0  0  0
 29 32  2  0  0  0  0
 30 33  1  0  0  0  0
 33 34  1  0  0  0  0
 33 35  2  0  0  0  0
 33 36  1  0  0  0  0
 36 37  1  0  0  0  0
 37 38  1  0  0  0  0
 37 39  1  0  0  0  0
 37 56  1  0  0  0  0
 39 40  1  0  0  0  0
 39 41  1  0  0  0  0
 39 47  1  0  0  0  0
 41 42  1  0  0  0  0
 43 44  1  0  0  0  0
 43 45  1  0  0  0  0
 43 47  1  0  0  0  0
 43 49  1  0  0  0  0
 45 46  1  0  0  0  0
 47 48  1  0  0  0  0
 47 57  1  0  0  0  0
 49 50  1  0  0  0  0
 49 51  1  0  0  0  0
 49 56  1  0  0  0  0
 51 52  1  0  0  0  0
 51 53  1  0  0  0  0
 51 54  1  0  0  0  0
 54 55  1  0  0  0  0
 57 58  1  0  0  0  0
M  BCL ATM C_TeTeTeTe H_S N_TrTrTrPi2 O_Te2Te2TeTe C_TeTeTeTe H_S C_TrTrTrPi C_TrTrTrPi H_S C_TeTeTeTe H_S C_TeTeTeTe H_S O_Te2Te2TeTe H_S N_TrTrTrPi2 H_S O_Tr2Tr2TrPi C_TrTrTrPi H_S C_TeTeTeTe H_S H_S O_Te2Te2TeTe H_S C_TrTrTrPi O_Tr2TrTrPi2 O_Tr2Tr2TrPi P_TeTeTeTePi O_Tr2TrTrPi2 O_Te2Te2TeTe O_Tr2Tr2TrPi P_TeTeTeTePi O_Te2Te2TeTe O_Tr2Tr2TrPi O_Tr2TrTrPi2 C_TeTeTeTe H_S C_TeTeTeTe H_S O_Te2Te2TeTe H_S C_TeTeTeTe H_S O_Te2Te2TeTe H_S C_TeTeTeTe H_S C_TeTeTeTe H_S C_TeTeTeTe H_S H_S O_Te2Te2TeTe H_S O_Te2Te2TeTe O_Te2Te2TeTe H_S
M  BCL BND NonConjugatedSingleBond NonConjugatedSingleBond NonConjugatedSingleBondInRing NonConjugatedSingleBondInRing ConjugatedSingleBondInRing ConjugatedSingleBondInRing NonConjugatedSingleBondInRing NonConjugatedSingleBond NonConjugatedSingleBondInRing NonConjugatedSingleBond ConjugatedSingleBondInRing ConjugatedDoubleBond NonConjugatedSingleBond ConjugatedDoubleBondInRing NonConjugatedSingleBond NonConjugatedSingleBondInRing NonConjugatedSingleBond NonConjugatedSingleBond NonConjugatedSingleBond NonConjugatedSingleBond NonConjugatedSingleBond ConjugatedSingleBondInRing NonConjugatedSingleBond ConjugatedSingleBondInRing NonConjugatedSingleBond NonConjugatedSingleBond NonConjugatedSingleBond NonConjugatedSingleBond ConjugatedDoubleBond ConjugatedSingleBond ConjugatedSingleBond ConjugatedSingleBond ConjugatedDoubleBond ConjugatedSingleBond ConjugatedSingleBond ConjugatedDoubleBond ConjugatedSingleBond NonConjugatedSingleBond NonConjugatedSingleBond NonConjugatedSingleBondInRing NonConjugatedSingleBondInRing NonConjugatedSingleBond NonConjugatedSingleBond NonConjugatedSingleBondInRing NonConjugatedSingleBond NonConjugatedSingleBond NonConjugatedSingleBond NonConjugatedSingleBondInRing NonConjugatedSingleBondInRing NonConjugatedSingleBond NonConjugatedSingleBond NonConjugatedSingleBond NonConjugatedSingleBond NonConjugatedSingleBond NonConjugatedSingleBondInRing NonConjugatedSingleBond NonConjugatedSingleBond NonConjugatedSingleBond NonConjugatedSingleBond NonConjugatedSingleBond
M  BCL CHI   1   S   5   S  10   S  12   R  29   S  33   R  37   S  39   R  43   R  47   R  49   S
M  BCL DBI - Z - - -
M  END
> <ConfClashScore>
1.11657e-06 

> <ConfOneFourInteractionScore>
-0.982154 

> <ConfScore>
0.105987 

> <ConfScorePBest>
0.00727047 

> <ConfTolerance>
1.84319 

$$$$
ChEBI.****
  PyMOL2.5          3D                             0

 58 60  0  0  0  0  0  0  0  0999 V2000
   23.7991   -9.3874   -0.9636 C   0  0  0  1  0  0  0  0  0  0  0  0
   22.9007   -9.1115   -1.4752 H   0  0  0  1  0  0  0  0  0  0  0  0
   24.8836   -8.4724   -1.3482 N   0  0  0  1  0  0  0  0  0  0  0  0
   23.6000   -9.3565    0.4340 O   0  0  0  1  0  0  0  0  0  0  0  0
   24.1752  -10.8216   -1.2888 C   0  0  0  1  0  0  0  0  0  0  0  0
   23.3048  -11.4272   -1.4320 H   0  0  0  1  0  0  0  0  0  0  0  0
   25.1943   -8.3099   -2.6809 C   0  0  0  1  0  0  0  0  0  0  0  0
   25.5728   -7.7915   -0.3731 C   0  0  0  1  0  0  0  0  0  0  0  0
   25.3068   -7.9426    0.6209 H   0  0  0  1  0  0  0  0  0  0  0  0
   24.1285  -10.5635    1.0480 C   0  0  0  1  0  0  0  0  0  0  0  0
   24.7578  -10.3194    1.8783 H   0  0  0  1  0  0  0  0  0  0  0  0
   24.9357  -11.2424   -0.0577 C   0  0  0  1  0  0  0  0  0  0  0  0
   24.9362  -12.3063    0.0564 H   0  0  0  1  0  0  0  0  0  0  0  0
   24.9995  -10.8884   -2.4534 O   0  0  0  1  0  0  0  0  0  0  0  0
   25.8802  -10.5709   -2.2413 H   0  0  0  1  0  0  0  0  0  0  0  0
   26.2199   -7.4371   -2.9525 N   0  0  0  1  0  0  0  0  0  0  0  0
   26.4549   -7.3089   -3.8952 H   0  0  0  1  0  0  0  0  0  0  0  0
   24.5966   -8.9034   -3.5634 O   0  0  0  1  0  0  0  0  0  0  0  0
   26.5856   -6.9303   -0.6499 C   0  0  0  1  0  0  0  0  0  0  0  0
   27.0856   -6.4317    0.1137 H   0  0  0  1  0  0  0  0  0  0  0  0
   23.0472  -11.4258    1.4957 C   0  0  0  1  0  0  0  0  0  0  0  0
   23.3490  -11.9100    2.4008 H   0  0  0  1  0  0  0  0  0  0  0  0
   22.8627  -12.1617    0.7412 H   0  0  0  1  0  0  0  0  0  0  0  0
   26.2817  -10.7655   -0.0881 O   0  0  0  1  0  0  0  0  0  0  0  0
   26.5446  -10.4915    0.7936 H   0  0  0  1  0  0  0  0  0  0  0  0
   26.9490   -6.7254   -2.0264 C   0  0  0  1  0  0  0  0  0  0  0  0
   21.8279  -10.7081    1.7441 O   0  0  0  1  0  0  0  0  0  0  0  0
   27.8477   -5.9678   -2.3531 O   0  0  0  1  0  0  0  0  0  0  0  0
   20.5188  -10.8058    0.8708 P   0  0  0  1  0  0  0  0  0  0  0  0
   20.9272  -10.6266   -0.6733 O   0  0  0  1  0  0  0  0  0  0  0  0
   19.9551  -12.2221    0.9567 O   0  0  0  0  0  0  0  0  0  0  0  0
   19.5831   -9.7523    1.3586 O   0  0  0  1  0  0  0  0  0  0  0  0
   20.1760   -9.7593   -1.7974 P   0  0  0  1  0  0  0  0  0  0  0  0
   20.3441   -8.3238   -1.5050 O   0  0  0  0  0  0  0  0  0  0  0  0
   20.5453  -10.2663   -3.1308 O   0  0  0  1  0  0  0  0  0  0  0  0
   18.7246  -10.2507   -1.4397 O   0  0  0  1  0  0  0  0  0  0  0  0
   18.1199  -11.3466   -2.1516 C   0  0  0  1  0  0  0  0  0  0  0  0
   17.0914  -11.4320   -1.8689 H   0  0  0  1  0  0  0  0  0  0  0  0
   18.8519  -12.6442   -1.8031 C   0  0  0  1  0  0  0  0  0  0  0  0
   18.7178  -12.8567   -0.7631 H   0  0  0  1  0  0  0  0  0  0  0  0
   20.2441  -12.4893   -2.0825 O   0  0  0  1  0  0  0  0  0  0  0  0
   20.3615  -12.2561   -3.0063 H   0  0  0  1  0  0  0  0  0  0  0  0
   18.3078  -13.4621   -4.1135 C   0  0  0  1  0  0  0  0  0  0  0  0
   19.3182  -13.3990   -4.4598 H   0  0  0  1  0  0  0  0  0  0  0  0
   17.6216  -14.4897   -4.8301 O   0  0  0  1  0  0  0  0  0  0  0  0
   17.7019  -14.3310   -5.7734 H   0  0  0  1  0  0  0  0  0  0  0  0
   18.3027  -13.7938   -2.6229 C   0  0  0  1  0  0  0  0  0  0  0  0
   18.9072  -14.6609   -2.4564 H   0  0  0  1  0  0  0  0  0  0  0  0
   17.6075  -12.1267   -4.3487 C   0  0  0  1  0  0  0  0  0  0  0  0
   16.5762  -12.2180   -4.0786 H   0  0  0  1  0  0  0  0  0  0  0  0
   17.7140  -11.7650   -5.7897 C   0  0  0  1  0  0  0  0  0  0  0  0
   17.4621  -12.6280   -6.3699 H   0  0  0  1  0  0  0  0  0  0  0  0
   18.7269  -11.4837   -5.9892 H   0  0  0  1  0  0  0  0  0  0  0  0
   16.8750  -10.7038   -6.1922 O   0  0  0  1  0  0  0  0  0  0  0  0
   17.2697   -9.8676   -5.9341 H   0  0  0  1  0  0  0  0  0  0  0  0
   18.2074  -11.1036   -3.5643 O   0  0  0  1  0  0  0  0  0  0  0  0
   16.9617  -14.0611   -2.2099 O   0  0  0  1  0  0  0  0  0  0  0  0
   16.3539  -13.7978   -2.9048 H   0  0  0  1  0  0  0  0  0  0  0  0
  1  2  1  0  0  0  0
  1  3  1  0  0  0  0
  1  4  1  0  0  0  0
  1  5  1  0  0  0  0
  3  7  1  0  0  0  0
  3  8  1  0  0  0  0
  4 10  1  0  0  0  0
  5  6  1  0  0  0  0
  5 12  1  0  0  0  0
  5 14  1  0  0  0  0
  7 16  1  0  0  0  0
  7 18  2  0  0  0  0
  8  9  1  0  0  0  0
  8 19  2  0  0  0  0
 10 11  1  0  0  0  0
 10 12  1  0  0  0  0
 10 21  1  0  0  0  0
 12 13  1  0  0  0  0
 12 24  1  0  0  0  0
 14 15  1  0  0  0  0
 16 17  1  0  0  0  0
 16 26  1  0  0  0  0
 19 20  1  0  0  0  0
 19 26  1  0  0  0  0
 21 22  1  0  0  0  0
 21 23  1  0  0  0  0
 21 27  1  0  0  0  0
 24 25  1  0  0  0  0
 26 28  2  0  0  0  0
 27 29  1  0  0  0  0
 29 30  1  0  0  0  0
 29 31  1  0  0  0  0
 29 32  2  0  0  0  0
 30 33  1  0  0  0  0
 33 34  1  0  0  0  0
 33 35  2  0  0  0  0
 33 36  1  0  0  0  0
 36 37  1  0  0  0  0
 37 38  1  0  0  0  0
 37 39  1  0  0  0  0
 37 56  1  0  0  0  0
 39 40  1  0  0  0  0
 39 41  1  0  0  0  0
 39 47  1  0  0  0  0
 41 42  1  0  0  0  0
 43 44  1  0  0  0  0
 43 45  1  0  0  0  0
 43 47  1  0  0  0  0
 43 49  1  0  0  0  0
 45 46  1  0  0  0  0
 47 48  1  0  0  0  0
 47 57  1  0  0  0  0
 49 50  1  0  0  0  0
 49 51  1  0  0  0  0
 49 56  1  0  0  0  0
 51 52  1  0  0  0  0
 51 53  1  0  0  0  0
 51 54  1  0  0  0  0
 54 55  1  0  0  0  0
 57 58  1  0  0  0  0
M  BCL ATM C_TeTeTeTe H_S N_TrTrTrPi2 O_Te2Te2TeTe C_TeTeTeTe H_S C_TrTrTrPi C_TrTrTrPi H_S C_TeTeTeTe H_S C_TeTeTeTe H_S O_Te2Te2TeTe H_S N_TrTrTrPi2 H_S O_Tr2Tr2TrPi C_TrTrTrPi H_S C_TeTeTeTe H_S H_S O_Te2Te2TeTe H_S C_TrTrTrPi O_Tr2TrTrPi2 O_Tr2Tr2TrPi P_TeTeTeTePi O_Tr2TrTrPi2 O_Te2Te2TeTe O_Tr2Tr2TrPi P_TeTeTeTePi O_Te2Te2TeTe O_Tr2Tr2TrPi O_Tr2TrTrPi2 C_TeTeTeTe H_S C_TeTeTeTe H_S O_Te2Te2TeTe H_S C_TeTeTeTe H_S O_Te2Te2TeTe H_S C_TeTeTeTe H_S C_TeTeTeTe H_S C_TeTeTeTe H_S H_S O_Te2Te2TeTe H_S O_Te2Te2TeTe O_Te2Te2TeTe H_S
M  BCL BND NonConjugatedSingleBond NonConjugatedSingleBond NonConjugatedSingleBondInRing NonConjugatedSingleBondInRing ConjugatedSingleBondInRing ConjugatedSingleBondInRing NonConjugatedSingleBondInRing NonConjugatedSingleBond NonConjugatedSingleBondInRing NonConjugatedSingleBond ConjugatedSingleBondInRing ConjugatedDoubleBond NonConjugatedSingleBond ConjugatedDoubleBondInRing NonConjugatedSingleBond NonConjugatedSingleBondInRing NonConjugatedSingleBond NonConjugatedSingleBond NonConjugatedSingleBond NonConjugatedSingleBond NonConjugatedSingleBond ConjugatedSingleBondInRing NonConjugatedSingleBond ConjugatedSingleBondInRing NonConjugatedSingleBond NonConjugatedSingleBond NonConjugatedSingleBond NonConjugatedSingleBond ConjugatedDoubleBond ConjugatedSingleBond ConjugatedSingleBond ConjugatedSingleBond ConjugatedDoubleBond ConjugatedSingleBond ConjugatedSingleBond ConjugatedDoubleBond ConjugatedSingleBond NonConjugatedSingleBond NonConjugatedSingleBond NonConjugatedSingleBondInRing NonConjugatedSingleBondInRing NonConjugatedSingleBond NonConjugatedSingleBond NonConjugatedSingleBondInRing NonConjugatedSingleBond NonConjugatedSingleBond NonConjugatedSingleBond NonConjugatedSingleBondInRing NonConjugatedSingleBondInRing NonConjugatedSingleBond NonConjugatedSingleBond NonConjugatedSingleBond NonConjugatedSingleBond NonConjugatedSingleBond NonConjugatedSingleBondInRing NonConjugatedSingleBond NonConjugatedSingleBond NonConjugatedSingleBond NonConjugatedSingleBond NonConjugatedSingleBond
M  BCL CHI   1   S   5   S  10   S  12   R  29   S  33   R  37   S  39   R  43   R  47   R  49   S
M  BCL DBI - Z - - -
M  END
> <ConfClashScore>
0 

> <ConfOneFourInteractionScore>
-0.966575 

> <ConfScore>
0.107617 

> <ConfScorePBest>
0.00716747 

> <ConfTolerance>
1.90991 

$$$$
ChEBI.****
  PyMOL2.5          3D                             0

 58 60  0  0  0  0  0  0  0  0999 V2000
   19.4207   -3.0644   -2.8402 C   0  0  0  1  0  0  0  0  0  0  0  0
   18.7419   -2.3695   -2.3917 H   0  0  0  1  0  0  0  0  0  0  0  0
   20.6202   -2.3519   -3.2982 N   0  0  0  1  0  0  0  0  0  0  0  0
   19.7699   -4.0767   -1.9196 O   0  0  0  1  0  0  0  0  0  0  0  0
   18.7551   -3.7823   -4.0002 C   0  0  0  1  0  0  0  0  0  0  0  0
   17.7114   -3.9301   -3.8165 H   0  0  0  1  0  0  0  0  0  0  0  0
   21.8502   -2.7384   -2.8395 C   0  0  0  1  0  0  0  0  0  0  0  0
   20.4904   -1.3032   -4.1843 C   0  0  0  1  0  0  0  0  0  0  0  0
   19.5348   -1.0521   -4.5089 H   0  0  0  1  0  0  0  0  0  0  0  0
   19.6701   -5.3857   -2.5438 C   0  0  0  1  0  0  0  0  0  0  0  0
   20.5609   -5.9534   -2.3732 H   0  0  0  1  0  0  0  0  0  0  0  0
   19.4942   -5.0951   -4.0336 C   0  0  0  1  0  0  0  0  0  0  0  0
   18.9162   -5.8565   -4.5144 H   0  0  0  1  0  0  0  0  0  0  0  0
   18.9269   -3.0613   -5.2212 O   0  0  0  1  0  0  0  0  0  0  0  0
   18.1680   -2.4916   -5.3664 H   0  0  0  1  0  0  0  0  0  0  0  0
   22.9080   -2.0089   -3.3370 N   0  0  0  1  0  0  0  0  0  0  0  0
   23.8016   -2.2698   -3.0310 H   0  0  0  1  0  0  0  0  0  0  0  0
   21.9986   -3.6576   -2.0512 O   0  0  0  1  0  0  0  0  0  0  0  0
   21.5266   -0.5866   -4.6529 C   0  0  0  1  0  0  0  0  0  0  0  0
   21.3775    0.2066   -5.3088 H   0  0  0  1  0  0  0  0  0  0  0  0
   18.4926   -6.1339   -2.0113 C   0  0  0  1  0  0  0  0  0  0  0  0
   17.6571   -5.4733   -1.9087 H   0  0  0  1  0  0  0  0  0  0  0  0
   18.7311   -6.5587   -1.0586 H   0  0  0  1  0  0  0  0  0  0  0  0
   20.7512   -4.9671   -4.6899 O   0  0  0  1  0  0  0  0  0  0  0  0
   21.3658   -5.6129   -4.3339 H   0  0  0  1  0  0  0  0  0  0  0  0
   22.8440   -0.9505   -4.2196 C   0  0  0  1  0  0  0  0  0  0  0  0
   18.1768   -7.1850   -2.9543 O   0  0  0  1  0  0  0  0  0  0  0  0
   23.8415   -0.3637   -4.6056 O   0  0  0  1  0  0  0  0  0  0  0  0
   16.7335   -7.9024   -2.9393 P   0  0  0  1  0  0  0  0  0  0  0  0
   16.8190   -8.4138   -1.4328 O   0  0  0  1  0  0  0  0  0  0  0  0
   15.6711   -6.8802   -3.1033 O   0  0  0  0  0  0  0  0  0  0  0  0
   16.7572   -9.0657   -3.8503 O   0  0  0  1  0  0  0  0  0  0  0  0
   17.8759   -9.2193   -0.5843 P   0  0  0  1  0  0  0  0  0  0  0  0
   18.8999   -8.2514    0.0034 O   0  0  0  0  0  0  0  0  0  0  0  0
   17.1203   -9.9955    0.4404 O   0  0  0  1  0  0  0  0  0  0  0  0
   18.7052  -10.1255   -1.5612 O   0  0  0  1  0  0  0  0  0  0  0  0
   18.0804  -11.1952   -2.2783 C   0  0  0  1  0  0  0  0  0  0  0  0
   17.0490  -11.2569   -2.0005 H   0  0  0  1  0  0  0  0  0  0  0  0
   18.7786  -12.5127   -1.9351 C   0  0  0  1  0  0  0  0  0  0  0  0
   18.6348  -12.7284   -0.8970 H   0  0  0  1  0  0  0  0  0  0  0  0
   20.1758  -12.3906   -2.2077 O   0  0  0  1  0  0  0  0  0  0  0  0
   20.5402  -13.2560   -2.4076 H   0  0  0  1  0  0  0  0  0  0  0  0
   18.2245  -13.3024   -4.2530 C   0  0  0  1  0  0  0  0  0  0  0  0
   19.2377  -13.2621   -4.5945 H   0  0  0  1  0  0  0  0  0  0  0  0
   17.5162  -14.3081   -4.9789 O   0  0  0  1  0  0  0  0  0  0  0  0
   18.1379  -14.9564   -5.3179 H   0  0  0  1  0  0  0  0  0  0  0  0
   18.2047  -13.6432   -2.7645 C   0  0  0  1  0  0  0  0  0  0  0  0
   18.7868  -14.5260   -2.6010 H   0  0  0  1  0  0  0  0  0  0  0  0
   17.5585  -11.9486   -4.4825 C   0  0  0  1  0  0  0  0  0  0  0  0
   16.5241  -12.0160   -4.2173 H   0  0  0  1  0  0  0  0  0  0  0  0
   17.6812  -11.5776   -5.9327 C   0  0  0  1  0  0  0  0  0  0  0  0
   18.6413  -11.1435   -6.1186 H   0  0  0  1  0  0  0  0  0  0  0  0
   16.9158  -10.8781   -6.1967 H   0  0  0  1  0  0  0  0  0  0  0  0
   17.5320  -12.7721   -6.6940 O   0  0  0  1  0  0  0  0  0  0  0  0
   16.7253  -12.7232   -7.2121 H   0  0  0  1  0  0  0  0  0  0  0  0
   18.1801  -10.9456   -3.6891 O   0  0  0  1  0  0  0  0  0  0  0  0
   16.8542  -13.8801   -2.3584 O   0  0  0  1  0  0  0  0  0  0  0  0
   16.8214  -14.6530   -1.7900 H   0  0  0  1  0  0  0  0  0  0  0  0
  1  2  1  0  0  0  0
  1  3  1  0  0  0  0
  1  4  1  0  0  0  0
  1  5  1  0  0  0  0
  3  7  1  0  0  0  0
  3  8  1  0  0  0  0
  4 10  1  0  0  0  0
  5  6  1  0  0  0  0
  5 12  1  0  0  0  0
  5 14  1  0  0  0  0
  7 16  1  0  0  0  0
  7 18  2  0  0  0  0
  8  9  1  0  0  0  0
  8 19  2  0  0  0  0
 10 11  1  0  0  0  0
 10 12  1  0  0  0  0
 10 21  1  0  0  0  0
 12 13  1  0  0  0  0
 12 24  1  0  0  0  0
 14 15  1  0  0  0  0
 16 17  1  0  0  0  0
 16 26  1  0  0  0  0
 19 20  1  0  0  0  0
 19 26  1  0  0  0  0
 21 22  1  0  0  0  0
 21 23  1  0  0  0  0
 21 27  1  0  0  0  0
 24 25  1  0  0  0  0
 26 28  2  0  0  0  0
 27 29  1  0  0  0  0
 29 30  1  0  0  0  0
 29 31  1  0  0  0  0
 29 32  2  0  0  0  0
 30 33  1  0  0  0  0
 33 34  1  0  0  0  0
 33 35  2  0  0  0  0
 33 36  1  0  0  0  0
 36 37  1  0  0  0  0
 37 38  1  0  0  0  0
 37 39  1  0  0  0  0
 37 56  1  0  0  0  0
 39 40  1  0  0  0  0
 39 41  1  0  0  0  0
 39 47  1  0  0  0  0
 41 42  1  0  0  0  0
 43 44  1  0  0  0  0
 43 45  1  0  0  0  0
 43 47  1  0  0  0  0
 43 49  1  0  0  0  0
 45 46  1  0  0  0  0
 47 48  1  0  0  0  0
 47 57  1  0  0  0  0
 49 50  1  0  0  0  0
 49 51  1  0  0  0  0
 49 56  1  0  0  0  0
 51 52  1  0  0  0  0
 51 53  1  0  0  0  0
 51 54  1  0  0  0  0
 54 55  1  0  0  0  0
 57 58  1  0  0  0  0
M  BCL ATM C_TeTeTeTe H_S N_TrTrTrPi2 O_Te2Te2TeTe C_TeTeTeTe H_S C_TrTrTrPi C_TrTrTrPi H_S C_TeTeTeTe H_S C_TeTeTeTe H_S O_Te2Te2TeTe H_S N_TrTrTrPi2 H_S O_Tr2Tr2TrPi C_TrTrTrPi H_S C_TeTeTeTe H_S H_S O_Te2Te2TeTe H_S C_TrTrTrPi O_Tr2TrTrPi2 O_Tr2Tr2TrPi P_TeTeTeTePi O_Tr2TrTrPi2 O_Te2Te2TeTe O_Tr2Tr2TrPi P_TeTeTeTePi O_Te2Te2TeTe O_Tr2Tr2TrPi O_Tr2TrTrPi2 C_TeTeTeTe H_S C_TeTeTeTe H_S O_Te2Te2TeTe H_S C_TeTeTeTe H_S O_Te2Te2TeTe H_S C_TeTeTeTe H_S C_TeTeTeTe H_S C_TeTeTeTe H_S H_S O_Te2Te2TeTe H_S O_Te2Te2TeTe O_Te2Te2TeTe H_S
M  BCL BND NonConjugatedSingleBond NonConjugatedSingleBond NonConjugatedSingleBondInRing NonConjugatedSingleBondInRing ConjugatedSingleBondInRing ConjugatedSingleBondInRing NonConjugatedSingleBondInRing NonConjugatedSingleBond NonConjugatedSingleBondInRing NonConjugatedSingleBond ConjugatedSingleBondInRing ConjugatedDoubleBond NonConjugatedSingleBond ConjugatedDoubleBondInRing NonConjugatedSingleBond NonConjugatedSingleBondInRing NonConjugatedSingleBond NonConjugatedSingleBond NonConjugatedSingleBond NonConjugatedSingleBond NonConjugatedSingleBond ConjugatedSingleBondInRing NonConjugatedSingleBond ConjugatedSingleBondInRing NonConjugatedSingleBond NonConjugatedSingleBond NonConjugatedSingleBond NonConjugatedSingleBond ConjugatedDoubleBond ConjugatedSingleBond ConjugatedSingleBond ConjugatedSingleBond ConjugatedDoubleBond ConjugatedSingleBond ConjugatedSingleBond ConjugatedDoubleBond ConjugatedSingleBond NonConjugatedSingleBond NonConjugatedSingleBond NonConjugatedSingleBondInRing NonConjugatedSingleBondInRing NonConjugatedSingleBond NonConjugatedSingleBond NonConjugatedSingleBondInRing NonConjugatedSingleBond NonConjugatedSingleBond NonConjugatedSingleBond NonConjugatedSingleBondInRing NonConjugatedSingleBondInRing NonConjugatedSingleBond NonConjugatedSingleBond NonConjugatedSingleBond NonConjugatedSingleBond NonConjugatedSingleBond NonConjugatedSingleBondInRing NonConjugatedSingleBond NonConjugatedSingleBond NonConjugatedSingleBond NonConjugatedSingleBond NonConjugatedSingleBond
M  BCL CHI   1   S   5   S  10   S  12   R  29   S  33   R  37   S  39   R  43   R  47   R  49   S
M  BCL DBI - Z - - -
M  END
> <ConfClashScore>
0.000489571 

> <ConfOneFourInteractionScore>
-0.969969 

> <ConfScore>
0.138634 

> <ConfScorePBest>
0.00706447 

> <ConfTolerance>
1.93522 

$$$$
ChEBI.****
  PyMOL2.5          3D                             0

 58 60  0  0  0  0  0  0  0  0999 V2000
   14.8230   -9.5792    4.2435 C   0  0  0  1  0  0  0  0  0  0  0  0
   15.8284   -9.9400    4.1800 H   0  0  0  1  0  0  0  0  0  0  0  0
   14.6924   -8.6929    5.4091 N   0  0  0  1  0  0  0  0  0  0  0  0
   14.4667   -8.8821    3.0443 O   0  0  0  1  0  0  0  0  0  0  0  0
   13.8429  -10.7490    4.3510 C   0  0  0  1  0  0  0  0  0  0  0  0
   14.2105  -11.6172    3.8451 H   0  0  0  1  0  0  0  0  0  0  0  0
   14.2565   -7.3948    5.2194 C   0  0  0  1  0  0  0  0  0  0  0  0
   15.0154   -9.1920    6.6880 C   0  0  0  1  0  0  0  0  0  0  0  0
   15.3405  -10.1748    6.7878 H   0  0  0  1  0  0  0  0  0  0  0  0
   13.1562   -9.2876    2.6082 C   0  0  0  1  0  0  0  0  0  0  0  0
   12.5252   -8.4316    2.4900 H   0  0  0  1  0  0  0  0  0  0  0  0
   12.6220  -10.1700    3.6514 C   0  0  0  1  0  0  0  0  0  0  0  0
   12.0337  -10.9509    3.2167 H   0  0  0  1  0  0  0  0  0  0  0  0
   13.5618  -11.0741    5.7131 O   0  0  0  1  0  0  0  0  0  0  0  0
   13.0857  -10.3487    6.1240 H   0  0  0  1  0  0  0  0  0  0  0  0
   14.1789   -6.6266    6.3438 N   0  0  0  1  0  0  0  0  0  0  0  0
   13.8750   -5.7024    6.2257 H   0  0  0  1  0  0  0  0  0  0  0  0
   13.9602   -6.9641    4.1171 O   0  0  0  1  0  0  0  0  0  0  0  0
   14.9080   -8.4091    7.7879 C   0  0  0  1  0  0  0  0  0  0  0  0
   15.1239   -8.7946    8.7294 H   0  0  0  1  0  0  0  0  0  0  0  0
   13.2492  -10.0214    1.3109 C   0  0  0  1  0  0  0  0  0  0  0  0
   12.3672   -9.8483    0.7304 H   0  0  0  1  0  0  0  0  0  0  0  0
   13.3573  -11.0703    1.4924 H   0  0  0  1  0  0  0  0  0  0  0  0
   11.8225   -9.4276    4.5733 O   0  0  0  1  0  0  0  0  0  0  0  0
   11.2741   -8.8038    4.0919 H   0  0  0  1  0  0  0  0  0  0  0  0
   14.4874   -7.0221    7.6403 C   0  0  0  1  0  0  0  0  0  0  0  0
   14.4094   -9.5213    0.6055 O   0  0  0  1  0  0  0  0  0  0  0  0
   14.4110   -6.2597    8.5897 O   0  0  0  1  0  0  0  0  0  0  0  0
   15.5885  -10.4871    0.2020 P   0  0  0  1  0  0  0  0  0  0  0  0
   16.2568   -9.6787   -0.9933 O   0  0  0  1  0  0  0  0  0  0  0  0
   16.5773  -10.6143    1.3004 O   0  0  0  0  0  0  0  0  0  0  0  0
   14.9722  -11.7024   -0.3317 O   0  0  0  1  0  0  0  0  0  0  0  0
   17.6265   -8.8489   -1.2947 P   0  0  0  1  0  0  0  0  0  0  0  0
   17.4344   -7.9480   -2.4462 O   0  0  0  0  0  0  0  0  0  0  0  0
   18.0576   -8.3698   -0.0164 O   0  0  0  1  0  0  0  0  0  0  0  0
   18.5529  -10.0638   -1.6716 O   0  0  0  1  0  0  0  0  0  0  0  0
   18.0242  -11.2058   -2.3240 C   0  0  0  1  0  0  0  0  0  0  0  0
   16.9993  -11.3343   -2.0446 H   0  0  0  1  0  0  0  0  0  0  0  0
   18.8228  -12.4432   -1.9088 C   0  0  0  1  0  0  0  0  0  0  0  0
   18.6906  -12.6131   -0.8607 H   0  0  0  1  0  0  0  0  0  0  0  0
   20.2070  -12.2252   -2.1857 O   0  0  0  1  0  0  0  0  0  0  0  0
   20.7088  -13.0077   -1.9458 H   0  0  0  1  0  0  0  0  0  0  0  0
   18.3462  -13.3985   -4.1811 C   0  0  0  1  0  0  0  0  0  0  0  0
   19.3549  -13.2962   -4.5230 H   0  0  0  1  0  0  0  0  0  0  0  0
   17.7241  -14.4951   -4.8523 O   0  0  0  1  0  0  0  0  0  0  0  0
   17.1442  -14.1620   -5.5410 H   0  0  0  1  0  0  0  0  0  0  0  0
   18.3451  -13.6589   -2.6763 C   0  0  0  1  0  0  0  0  0  0  0  0
   18.9945  -14.4824   -2.4644 H   0  0  0  1  0  0  0  0  0  0  0  0
   17.5762  -12.1163   -4.4847 C   0  0  0  1  0  0  0  0  0  0  0  0
   16.5489  -12.2514   -4.2177 H   0  0  0  1  0  0  0  0  0  0  0  0
   17.6774  -11.8152   -5.9547 C   0  0  0  1  0  0  0  0  0  0  0  0
   17.3449  -12.6710   -6.5042 H   0  0  0  1  0  0  0  0  0  0  0  0
   18.7004  -11.6124   -6.1940 H   0  0  0  1  0  0  0  0  0  0  0  0
   16.8950  -10.7027   -6.3321 O   0  0  0  1  0  0  0  0  0  0  0  0
   17.4404   -9.9127   -6.3325 H   0  0  0  1  0  0  0  0  0  0  0  0
   18.1117  -11.0257   -3.7462 O   0  0  0  1  0  0  0  0  0  0  0  0
   17.0169  -13.9797   -2.2603 O   0  0  0  1  0  0  0  0  0  0  0  0
   16.8457  -14.9100   -2.4242 H   0  0  0  1  0  0  0  0  0  0  0  0
  1  2  1  0  0  0  0
  1  3  1  0  0  0  0
  1  4  1  0  0  0  0
  1  5  1  0  0  0  0
  3  7  1  0  0  0  0
  3  8  1  0  0  0  0
  4 10  1  0  0  0  0
  5  6  1  0  0  0  0
  5 12  1  0  0  0  0
  5 14  1  0  0  0  0
  7 16  1  0  0  0  0
  7 18  2  0  0  0  0
  8  9  1  0  0  0  0
  8 19  2  0  0  0  0
 10 11  1  0  0  0  0
 10 12  1  0  0  0  0
 10 21  1  0  0  0  0
 12 13  1  0  0  0  0
 12 24  1  0  0  0  0
 14 15  1  0  0  0  0
 16 17  1  0  0  0  0
 16 26  1  0  0  0  0
 19 20  1  0  0  0  0
 19 26  1  0  0  0  0
 21 22  1  0  0  0  0
 21 23  1  0  0  0  0
 21 27  1  0  0  0  0
 24 25  1  0  0  0  0
 26 28  2  0  0  0  0
 27 29  1  0  0  0  0
 29 30  1  0  0  0  0
 29 31  1  0  0  0  0
 29 32  2  0  0  0  0
 30 33  1  0  0  0  0
 33 34  1  0  0  0  0
 33 35  2  0  0  0  0
 33 36  1  0  0  0  0
 36 37  1  0  0  0  0
 37 38  1  0  0  0  0
 37 39  1  0  0  0  0
 37 56  1  0  0  0  0
 39 40  1  0  0  0  0
 39 41  1  0  0  0  0
 39 47  1  0  0  0  0
 41 42  1  0  0  0  0
 43 44  1  0  0  0  0
 43 45  1  0  0  0  0
 43 47  1  0  0  0  0
 43 49  1  0  0  0  0
 45 46  1  0  0  0  0
 47 48  1  0  0  0  0
 47 57  1  0  0  0  0
 49 50  1  0  0  0  0
 49 51  1  0  0  0  0
 49 56  1  0  0  0  0
 51 52  1  0  0  0  0
 51 53  1  0  0  0  0
 51 54  1  0  0  0  0
 54 55  1  0  0  0  0
 57 58  1  0  0  0  0
M  BCL ATM C_TeTeTeTe H_S N_TrTrTrPi2 O_Te2Te2TeTe C_TeTeTeTe H_S C_TrTrTrPi C_TrTrTrPi H_S C_TeTeTeTe H_S C_TeTeTeTe H_S O_Te2Te2TeTe H_S N_TrTrTrPi2 H_S O_Tr2Tr2TrPi C_TrTrTrPi H_S C_TeTeTeTe H_S H_S O_Te2Te2TeTe H_S C_TrTrTrPi O_Tr2TrTrPi2 O_Tr2Tr2TrPi P_TeTeTeTePi O_Tr2TrTrPi2 O_Te2Te2TeTe O_Tr2Tr2TrPi P_TeTeTeTePi O_Te2Te2TeTe O_Tr2Tr2TrPi O_Tr2TrTrPi2 C_TeTeTeTe H_S C_TeTeTeTe H_S O_Te2Te2TeTe H_S C_TeTeTeTe H_S O_Te2Te2TeTe H_S C_TeTeTeTe H_S C_TeTeTeTe H_S C_TeTeTeTe H_S H_S O_Te2Te2TeTe H_S O_Te2Te2TeTe O_Te2Te2TeTe H_S
M  BCL BND NonConjugatedSingleBond NonConjugatedSingleBond NonConjugatedSingleBondInRing NonConjugatedSingleBondInRing ConjugatedSingleBondInRing ConjugatedSingleBondInRing NonConjugatedSingleBondInRing NonConjugatedSingleBond NonConjugatedSingleBondInRing NonConjugatedSingleBond ConjugatedSingleBondInRing ConjugatedDoubleBond NonConjugatedSingleBond ConjugatedDoubleBondInRing NonConjugatedSingleBond NonConjugatedSingleBondInRing NonConjugatedSingleBond NonConjugatedSingleBond NonConjugatedSingleBond NonConjugatedSingleBond NonConjugatedSingleBond ConjugatedSingleBondInRing NonConjugatedSingleBond ConjugatedSingleBondInRing NonConjugatedSingleBond NonConjugatedSingleBond NonConjugatedSingleBond NonConjugatedSingleBond ConjugatedDoubleBond ConjugatedSingleBond ConjugatedSingleBond ConjugatedSingleBond ConjugatedDoubleBond ConjugatedSingleBond ConjugatedSingleBond ConjugatedDoubleBond ConjugatedSingleBond NonConjugatedSingleBond NonConjugatedSingleBond NonConjugatedSingleBondInRing NonConjugatedSingleBondInRing NonConjugatedSingleBond NonConjugatedSingleBond NonConjugatedSingleBondInRing NonConjugatedSingleBond NonConjugatedSingleBond NonConjugatedSingleBond NonConjugatedSingleBondInRing NonConjugatedSingleBondInRing NonConjugatedSingleBond NonConjugatedSingleBond NonConjugatedSingleBond NonConjugatedSingleBond NonConjugatedSingleBond NonConjugatedSingleBondInRing NonConjugatedSingleBond NonConjugatedSingleBond NonConjugatedSingleBond NonConjugatedSingleBond NonConjugatedSingleBond
M  BCL CHI   1   S   5   S  10   S  12   R  29   S  33   R  37   S  39   R  43   R  47   R  49   S
M  BCL DBI - Z - - -
M  END
> <ConfClashScore>
0.00077272 

> <ConfOneFourInteractionScore>
-0.9763 

> <ConfScore>
0.1864 

> <ConfScorePBest>
0.00696147 

> <ConfTolerance>
1.98427 

$$$$
ChEBI.****
  PyMOL2.5          3D                             0

 58 60  0  0  0  0  0  0  0  0999 V2000
   16.2135   -6.2292   -1.5946 C   0  0  0  1  0  0  0  0  0  0  0  0
   16.1811   -5.1765   -1.7834 H   0  0  0  1  0  0  0  0  0  0  0  0
   15.5291   -6.9398   -2.6736 N   0  0  0  1  0  0  0  0  0  0  0  0
   17.5883   -6.6853   -1.4726 O   0  0  0  1  0  0  0  0  0  0  0  0
   15.5736   -6.5540   -0.2455 C   0  0  0  1  0  0  0  0  0  0  0  0
   15.7122   -5.7566    0.4544 H   0  0  0  1  0  0  0  0  0  0  0  0
   14.5627   -6.2737   -3.4032 C   0  0  0  1  0  0  0  0  0  0  0  0
   15.8682   -8.2437   -2.9264 C   0  0  0  1  0  0  0  0  0  0  0  0
   16.5765   -8.7183   -2.3310 H   0  0  0  1  0  0  0  0  0  0  0  0
   17.7478   -7.4613   -0.3037 C   0  0  0  1  0  0  0  0  0  0  0  0
   18.2849   -8.3605   -0.5224 H   0  0  0  1  0  0  0  0  0  0  0  0
   16.3404   -7.7849    0.1642 C   0  0  0  1  0  0  0  0  0  0  0  0
   16.3078   -7.9264    1.2243 H   0  0  0  1  0  0  0  0  0  0  0  0
   14.1791   -6.8305   -0.3832 O   0  0  0  1  0  0  0  0  0  0  0  0
   14.0453   -7.4536   -1.1012 H   0  0  0  1  0  0  0  0  0  0  0  0
   13.9827   -6.9646   -4.4314 N   0  0  0  1  0  0  0  0  0  0  0  0
   13.2963   -6.5044   -4.9582 H   0  0  0  1  0  0  0  0  0  0  0  0
   14.2426   -5.1256   -3.1429 O   0  0  0  1  0  0  0  0  0  0  0  0
   15.2689   -8.9377   -3.9775 C   0  0  0  1  0  0  0  0  0  0  0  0
   15.5286   -9.9263   -4.1695 H   0  0  0  1  0  0  0  0  0  0  0  0
   18.4794   -6.6853    0.7417 C   0  0  0  1  0  0  0  0  0  0  0  0
   18.3665   -7.1603    1.6938 H   0  0  0  1  0  0  0  0  0  0  0  0
   18.0940   -5.6884    0.7920 H   0  0  0  1  0  0  0  0  0  0  0  0
   15.8341   -8.9503   -0.4882 O   0  0  0  1  0  0  0  0  0  0  0  0
   16.5089   -9.6330   -0.4940 H   0  0  0  1  0  0  0  0  0  0  0  0
   14.2981   -8.2797   -4.7852 C   0  0  0  1  0  0  0  0  0  0  0  0
   19.8771   -6.6551    0.3686 O   0  0  0  1  0  0  0  0  0  0  0  0
   13.7691   -8.8348   -5.7365 O   0  0  0  1  0  0  0  0  0  0  0  0
   20.5631   -7.7647   -0.6077 P   0  0  0  1  0  0  0  0  0  0  0  0
   20.0166   -8.9780    0.2798 O   0  0  0  1  0  0  0  0  0  0  0  0
   19.8950   -7.7637   -1.9328 O   0  0  0  0  0  0  0  0  0  0  0  0
   22.0295   -7.6787   -0.5316 O   0  0  0  1  0  0  0  0  0  0  0  0
   19.4278  -10.4401   -0.0295 P   0  0  0  1  0  0  0  0  0  0  0  0
   20.4711  -11.5157   -0.0727 O   0  0  0  0  0  0  0  0  0  0  0  0
   18.3084  -10.7510    0.8388 O   0  0  0  1  0  0  0  0  0  0  0  0
   18.8698  -10.2790   -1.4883 O   0  0  0  1  0  0  0  0  0  0  0  0
   18.1876  -11.3380   -2.1944 C   0  0  0  1  0  0  0  0  0  0  0  0
   17.1643  -11.3730   -1.8837 H   0  0  0  1  0  0  0  0  0  0  0  0
   18.8605  -12.6752   -1.8777 C   0  0  0  1  0  0  0  0  0  0  0  0
   18.7442  -12.8909   -0.8361 H   0  0  0  1  0  0  0  0  0  0  0  0
   20.2506  -12.5898   -2.1946 O   0  0  0  1  0  0  0  0  0  0  0  0
   20.5525  -11.6869   -2.0713 H   0  0  0  1  0  0  0  0  0  0  0  0
   18.2112  -13.4407   -4.1789 C   0  0  0  1  0  0  0  0  0  0  0  0
   19.2137  -13.4265   -4.5527 H   0  0  0  1  0  0  0  0  0  0  0  0
   17.4530  -14.4243   -4.8847 O   0  0  0  1  0  0  0  0  0  0  0  0
   17.8430  -14.5694   -5.7498 H   0  0  0  1  0  0  0  0  0  0  0  0
   18.2299  -13.7866   -2.6915 C   0  0  0  1  0  0  0  0  0  0  0  0
   18.7929  -14.6854   -2.5495 H   0  0  0  1  0  0  0  0  0  0  0  0
   17.5752  -12.0686   -4.3829 C   0  0  0  1  0  0  0  0  0  0  0  0
   16.5483  -12.1091   -4.0848 H   0  0  0  1  0  0  0  0  0  0  0  0
   17.6613  -11.6954   -5.8351 C   0  0  0  1  0  0  0  0  0  0  0  0
   17.1594  -12.4288   -6.4311 H   0  0  0  1  0  0  0  0  0  0  0  0
   18.6863  -11.6315   -6.1356 H   0  0  0  1  0  0  0  0  0  0  0  0
   17.0308  -10.4308   -5.9891 O   0  0  0  1  0  0  0  0  0  0  0  0
   17.4786   -9.9308   -6.6754 H   0  0  0  1  0  0  0  0  0  0  0  0
   18.2488  -11.0858   -3.6069 O   0  0  0  1  0  0  0  0  0  0  0  0
   16.9021  -13.9863   -2.2480 O   0  0  0  1  0  0  0  0  0  0  0  0
   16.3825  -14.3735   -2.9563 H   0  0  0  1  0  0  0  0  0  0  0  0
  1  2  1  0  0  0  0
  1  3  1  0  0  0  0
  1  4  1  0  0  0  0
  1  5  1  0  0  0  0
  3  7  1  0  0  0  0
  3  8  1  0  0  0  0
  4 10  1  0  0  0  0
  5  6  1  0  0  0  0
  5 12  1  0  0  0  0
  5 14  1  0  0  0  0
  7 16  1  0  0  0  0
  7 18  2  0  0  0  0
  8  9  1  0  0  0  0
  8 19  2  0  0  0  0
 10 11  1  0  0  0  0
 10 12  1  0  0  0  0
 10 21  1  0  0  0  0
 12 13  1  0  0  0  0
 12 24  1  0  0  0  0
 14 15  1  0  0  0  0
 16 17  1  0  0  0  0
 16 26  1  0  0  0  0
 19 20  1  0  0  0  0
 19 26  1  0  0  0  0
 21 22  1  0  0  0  0
 21 23  1  0  0  0  0
 21 27  1  0  0  0  0
 24 25  1  0  0  0  0
 26 28  2  0  0  0  0
 27 29  1  0  0  0  0
 29 30  1  0  0  0  0
 29 31  1  0  0  0  0
 29 32  2  0  0  0  0
 30 33  1  0  0  0  0
 33 34  1  0  0  0  0
 33 35  2  0  0  0  0
 33 36  1  0  0  0  0
 36 37  1  0  0  0  0
 37 38  1  0  0  0  0
 37 39  1  0  0  0  0
 37 56  1  0  0  0  0
 39 40  1  0  0  0  0
 39 41  1  0  0  0  0
 39 47  1  0  0  0  0
 41 42  1  0  0  0  0
 43 44  1  0  0  0  0
 43 45  1  0  0  0  0
 43 47  1  0  0  0  0
 43 49  1  0  0  0  0
 45 46  1  0  0  0  0
 47 48  1  0  0  0  0
 47 57  1  0  0  0  0
 49 50  1  0  0  0  0
 49 51  1  0  0  0  0
 49 56  1  0  0  0  0
 51 52  1  0  0  0  0
 51 53  1  0  0  0  0
 51 54  1  0  0  0  0
 54 55  1  0  0  0  0
 57 58  1  0  0  0  0
M  BCL ATM C_TeTeTeTe H_S N_TrTrTrPi2 O_Te2Te2TeTe C_TeTeTeTe H_S C_TrTrTrPi C_TrTrTrPi H_S C_TeTeTeTe H_S C_TeTeTeTe H_S O_Te2Te2TeTe H_S N_TrTrTrPi2 H_S O_Tr2Tr2TrPi C_TrTrTrPi H_S C_TeTeTeTe H_S H_S O_Te2Te2TeTe H_S C_TrTrTrPi O_Tr2TrTrPi2 O_Tr2Tr2TrPi P_TeTeTeTePi O_Tr2TrTrPi2 O_Te2Te2TeTe O_Tr2Tr2TrPi P_TeTeTeTePi O_Te2Te2TeTe O_Tr2Tr2TrPi O_Tr2TrTrPi2 C_TeTeTeTe H_S C_TeTeTeTe H_S O_Te2Te2TeTe H_S C_TeTeTeTe H_S O_Te2Te2TeTe H_S C_TeTeTeTe H_S C_TeTeTeTe H_S C_TeTeTeTe H_S H_S O_Te2Te2TeTe H_S O_Te2Te2TeTe O_Te2Te2TeTe H_S
M  BCL BND NonConjugatedSingleBond NonConjugatedSingleBond NonConjugatedSingleBondInRing NonConjugatedSingleBondInRing ConjugatedSingleBondInRing ConjugatedSingleBondInRing NonConjugatedSingleBondInRing NonConjugatedSingleBond NonConjugatedSingleBondInRing NonConjugatedSingleBond ConjugatedSingleBondInRing ConjugatedDoubleBond NonConjugatedSingleBond ConjugatedDoubleBondInRing NonConjugatedSingleBond NonConjugatedSingleBondInRing NonConjugatedSingleBond NonConjugatedSingleBond NonConjugatedSingleBond NonConjugatedSingleBond NonConjugatedSingleBond ConjugatedSingleBondInRing NonConjugatedSingleBond ConjugatedSingleBondInRing NonConjugatedSingleBond NonConjugatedSingleBond NonConjugatedSingleBond NonConjugatedSingleBond ConjugatedDoubleBond ConjugatedSingleBond ConjugatedSingleBond ConjugatedSingleBond ConjugatedDoubleBond ConjugatedSingleBond ConjugatedSingleBond ConjugatedDoubleBond ConjugatedSingleBond NonConjugatedSingleBond NonConjugatedSingleBond NonConjugatedSingleBondInRing NonConjugatedSingleBondInRing NonConjugatedSingleBond NonConjugatedSingleBond NonConjugatedSingleBondInRing NonConjugatedSingleBond NonConjugatedSingleBond NonConjugatedSingleBond NonConjugatedSingleBondInRing NonConjugatedSingleBondInRing NonConjugatedSingleBond NonConjugatedSingleBond NonConjugatedSingleBond NonConjugatedSingleBond NonConjugatedSingleBond NonConjugatedSingleBondInRing NonConjugatedSingleBond NonConjugatedSingleBond NonConjugatedSingleBond NonConjugatedSingleBond NonConjugatedSingleBond
M  BCL CHI   1   S   5   S  10   S  12   R  29   S  33   R  37   S  39   R  43   R  47   R  49   S
M  BCL DBI - Z - - -
M  END
> <ConfClashScore>
0.00129225 

> <ConfOneFourInteractionScore>
-0.955542 

> <ConfScore>
0.203442 

> <ConfScorePBest>
0.00685847 

> <ConfTolerance>
2.12873 

$$$$
ChEBI.****
  PyMOL2.5          3D                             0

 58 60  0  0  0  0  0  0  0  0999 V2000
   23.3086  -12.7460    2.2870 C   0  0  0  1  0  0  0  0  0  0  0  0
   23.7270  -12.6535    3.2675 H   0  0  0  1  0  0  0  0  0  0  0  0
   22.6285  -14.0345    2.1662 N   0  0  0  1  0  0  0  0  0  0  0  0
   22.4001  -11.7059    2.0581 O   0  0  0  1  0  0  0  0  0  0  0  0
   24.4222  -12.6430    1.2328 C   0  0  0  1  0  0  0  0  0  0  0  0
   25.3872  -12.7681    1.6778 H   0  0  0  1  0  0  0  0  0  0  0  0
   22.7232  -14.9449    3.1937 C   0  0  0  1  0  0  0  0  0  0  0  0
   21.9141  -14.3085    1.0382 C   0  0  0  1  0  0  0  0  0  0  0  0
   21.8916  -13.6006    0.2766 H   0  0  0  1  0  0  0  0  0  0  0  0
   22.7636  -10.9608    0.8562 C   0  0  0  1  0  0  0  0  0  0  0  0
   22.2191  -11.3205    0.0083 H   0  0  0  1  0  0  0  0  0  0  0  0
   24.2437  -11.2186    0.6905 C   0  0  0  1  0  0  0  0  0  0  0  0
   24.8197  -10.5183    1.2586 H   0  0  0  1  0  0  0  0  0  0  0  0
   24.2442  -13.6131    0.1997 O   0  0  0  1  0  0  0  0  0  0  0  0
   23.5176  -13.3466   -0.3684 H   0  0  0  1  0  0  0  0  0  0  0  0
   22.0276  -16.1291    3.0183 N   0  0  0  1  0  0  0  0  0  0  0  0
   22.0843  -16.7977    3.7326 H   0  0  0  1  0  0  0  0  0  0  0  0
   23.3798  -14.7223    4.1976 O   0  0  0  1  0  0  0  0  0  0  0  0
   21.2443  -15.4465    0.8734 C   0  0  0  1  0  0  0  0  0  0  0  0
   20.7140  -15.6116   -0.0059 H   0  0  0  1  0  0  0  0  0  0  0  0
   22.5009   -9.5198    1.0353 C   0  0  0  1  0  0  0  0  0  0  0  0
   22.8538   -8.9880    0.1765 H   0  0  0  1  0  0  0  0  0  0  0  0
   23.0163   -9.1734    1.9066 H   0  0  0  1  0  0  0  0  0  0  0  0
   24.6239  -11.1445   -0.6843 O   0  0  0  1  0  0  0  0  0  0  0  0
   25.5787  -11.2124   -0.7568 H   0  0  0  1  0  0  0  0  0  0  0  0
   21.2496  -16.4437    1.8983 C   0  0  0  1  0  0  0  0  0  0  0  0
   21.0929   -9.2826    1.1930 O   0  0  0  1  0  0  0  0  0  0  0  0
   20.6237  -17.4888    1.8037 O   0  0  0  1  0  0  0  0  0  0  0  0
   20.2149   -8.2518    0.3111 P   0  0  0  1  0  0  0  0  0  0  0  0
   20.4668   -8.7495   -1.2074 O   0  0  0  1  0  0  0  0  0  0  0  0
   18.7780   -8.4471    0.6058 O   0  0  0  0  0  0  0  0  0  0  0  0
   20.8172   -6.9155    0.5307 O   0  0  0  1  0  0  0  0  0  0  0  0
   19.3109   -9.0309   -2.2800 P   0  0  0  1  0  0  0  0  0  0  0  0
   18.5051   -7.7773   -2.4422 O   0  0  0  0  0  0  0  0  0  0  0  0
   19.9470   -9.6686   -3.4458 O   0  0  0  1  0  0  0  0  0  0  0  0
   18.4323  -10.1237   -1.5658 O   0  0  0  1  0  0  0  0  0  0  0  0
   17.9353  -11.2289   -2.2796 C   0  0  0  1  0  0  0  0  0  0  0  0
   16.9015  -11.3713   -2.0431 H   0  0  0  1  0  0  0  0  0  0  0  0
   18.7230  -12.4749   -1.9113 C   0  0  0  1  0  0  0  0  0  0  0  0
   18.4816  -12.7478   -0.9053 H   0  0  0  1  0  0  0  0  0  0  0  0
   20.1172  -12.1782   -2.0034 O   0  0  0  1  0  0  0  0  0  0  0  0
   20.5890  -12.9511   -2.3221 H   0  0  0  1  0  0  0  0  0  0  0  0
   18.3584  -13.3256   -4.2829 C   0  0  0  1  0  0  0  0  0  0  0  0
   19.3492  -13.3217   -4.6868 H   0  0  0  1  0  0  0  0  0  0  0  0
   17.5754  -14.3168   -4.9498 O   0  0  0  1  0  0  0  0  0  0  0  0
   16.6999  -14.3510   -4.5576 H   0  0  0  1  0  0  0  0  0  0  0  0
   18.4182  -13.6405   -2.8128 C   0  0  0  1  0  0  0  0  0  0  0  0
   19.1784  -14.3788   -2.6649 H   0  0  0  1  0  0  0  0  0  0  0  0
   17.7491  -12.0132   -4.4777 C   0  0  0  1  0  0  0  0  0  0  0  0
   16.6939  -12.1455   -4.3597 H   0  0  0  1  0  0  0  0  0  0  0  0
   18.0488  -11.6065   -5.8942 C   0  0  0  1  0  0  0  0  0  0  0  0
   17.8979  -12.4431   -6.5439 H   0  0  0  1  0  0  0  0  0  0  0  0
   19.0654  -11.2797   -5.9629 H   0  0  0  1  0  0  0  0  0  0  0  0
   17.1846  -10.5461   -6.2808 O   0  0  0  1  0  0  0  0  0  0  0  0
   17.7022   -9.7543   -6.4444 H   0  0  0  1  0  0  0  0  0  0  0  0
   18.0869  -10.9985   -3.7169 O   0  0  0  1  0  0  0  0  0  0  0  0
   17.1518  -14.1759   -2.4261 O   0  0  0  1  0  0  0  0  0  0  0  0
   17.2013  -15.1345   -2.4074 H   0  0  0  1  0  0  0  0  0  0  0  0
  1  2  1  0  0  0  0
  1  3  1  0  0  0  0
  1  4  1  0  0  0  0
  1  5  1  0  0  0  0
  3  7  1  0  0  0  0
  3  8  1  0  0  0  0
  4 10  1  0  0  0  0
  5  6  1  0  0  0  0
  5 12  1  0  0  0  0
  5 14  1  0  0  0  0
  7 16  1  0  0  0  0
  7 18  2  0  0  0  0
  8  9  1  0  0  0  0
  8 19  2  0  0  0  0
 10 11  1  0  0  0  0
 10 12  1  0  0  0  0
 10 21  1  0  0  0  0
 12 13  1  0  0  0  0
 12 24  1  0  0  0  0
 14 15  1  0  0  0  0
 16 17  1  0  0  0  0
 16 26  1  0  0  0  0
 19 20  1  0  0  0  0
 19 26  1  0  0  0  0
 21 22  1  0  0  0  0
 21 23  1  0  0  0  0
 21 27  1  0  0  0  0
 24 25  1  0  0  0  0
 26 28  2  0  0  0  0
 27 29  1  0  0  0  0
 29 30  1  0  0  0  0
 29 31  1  0  0  0  0
 29 32  2  0  0  0  0
 30 33  1  0  0  0  0
 33 34  1  0  0  0  0
 33 35  2  0  0  0  0
 33 36  1  0  0  0  0
 36 37  1  0  0  0  0
 37 38  1  0  0  0  0
 37 39  1  0  0  0  0
 37 56  1  0  0  0  0
 39 40  1  0  0  0  0
 39 41  1  0  0  0  0
 39 47  1  0  0  0  0
 41 42  1  0  0  0  0
 43 44  1  0  0  0  0
 43 45  1  0  0  0  0
 43 47  1  0  0  0  0
 43 49  1  0  0  0  0
 45 46  1  0  0  0  0
 47 48  1  0  0  0  0
 47 57  1  0  0  0  0
 49 50  1  0  0  0  0
 49 51  1  0  0  0  0
 49 56  1  0  0  0  0
 51 52  1  0  0  0  0
 51 53  1  0  0  0  0
 51 54  1  0  0  0  0
 54 55  1  0  0  0  0
 57 58  1  0  0  0  0
M  BCL ATM C_TeTeTeTe H_S N_TrTrTrPi2 O_Te2Te2TeTe C_TeTeTeTe H_S C_TrTrTrPi C_TrTrTrPi H_S C_TeTeTeTe H_S C_TeTeTeTe H_S O_Te2Te2TeTe H_S N_TrTrTrPi2 H_S O_Tr2Tr2TrPi C_TrTrTrPi H_S C_TeTeTeTe H_S H_S O_Te2Te2TeTe H_S C_TrTrTrPi O_Tr2TrTrPi2 O_Tr2Tr2TrPi P_TeTeTeTePi O_Tr2TrTrPi2 O_Te2Te2TeTe O_Tr2Tr2TrPi P_TeTeTeTePi O_Te2Te2TeTe O_Tr2Tr2TrPi O_Tr2TrTrPi2 C_TeTeTeTe H_S C_TeTeTeTe H_S O_Te2Te2TeTe H_S C_TeTeTeTe H_S O_Te2Te2TeTe H_S C_TeTeTeTe H_S C_TeTeTeTe H_S C_TeTeTeTe H_S H_S O_Te2Te2TeTe H_S O_Te2Te2TeTe O_Te2Te2TeTe H_S
M  BCL BND NonConjugatedSingleBond NonConjugatedSingleBond NonConjugatedSingleBondInRing NonConjugatedSingleBondInRing ConjugatedSingleBondInRing ConjugatedSingleBondInRing NonConjugatedSingleBondInRing NonConjugatedSingleBond NonConjugatedSingleBondInRing NonConjugatedSingleBond ConjugatedSingleBondInRing ConjugatedDoubleBond NonConjugatedSingleBond ConjugatedDoubleBondInRing NonConjugatedSingleBond NonConjugatedSingleBondInRing NonConjugatedSingleBond NonConjugatedSingleBond NonConjugatedSingleBond NonConjugatedSingleBond NonConjugatedSingleBond ConjugatedSingleBondInRing NonConjugatedSingleBond ConjugatedSingleBondInRing NonConjugatedSingleBond NonConjugatedSingleBond NonConjugatedSingleBond NonConjugatedSingleBond ConjugatedDoubleBond ConjugatedSingleBond ConjugatedSingleBond ConjugatedSingleBond ConjugatedDoubleBond ConjugatedSingleBond ConjugatedSingleBond ConjugatedDoubleBond ConjugatedSingleBond NonConjugatedSingleBond NonConjugatedSingleBond NonConjugatedSingleBondInRing NonConjugatedSingleBondInRing NonConjugatedSingleBond NonConjugatedSingleBond NonConjugatedSingleBondInRing NonConjugatedSingleBond NonConjugatedSingleBond NonConjugatedSingleBond NonConjugatedSingleBondInRing NonConjugatedSingleBondInRing NonConjugatedSingleBond NonConjugatedSingleBond NonConjugatedSingleBond NonConjugatedSingleBond NonConjugatedSingleBond NonConjugatedSingleBondInRing NonConjugatedSingleBond NonConjugatedSingleBond NonConjugatedSingleBond NonConjugatedSingleBond NonConjugatedSingleBond
M  BCL CHI   1   S   5   S  10   S  12   R  29   S  33   R  37   S  39   R  43   R  47   R  49   S
M  BCL DBI - Z - - -
M  END
> <ConfClashScore>
0 

> <ConfOneFourInteractionScore>
-0.960424 

> <ConfScore>
0.211221 

> <ConfScorePBest>
0.00675547 

> <ConfTolerance>
1.98465 

$$$$
ChEBI.****
  PyMOL2.5          3D                             0

 58 60  0  0  0  0  0  0  0  0999 V2000
   13.3492   -7.2609   -5.6474 C   0  0  0  1  0  0  0  0  0  0  0  0
   12.6876   -8.0527   -5.9305 H   0  0  0  1  0  0  0  0  0  0  0  0
   12.5920   -6.0084   -5.5284 N   0  0  0  1  0  0  0  0  0  0  0  0
   13.9999   -7.5641   -4.4434 O   0  0  0  1  0  0  0  0  0  0  0  0
   14.4882   -7.1132   -6.6666 C   0  0  0  1  0  0  0  0  0  0  0  0
   14.7710   -8.0632   -7.0695 H   0  0  0  1  0  0  0  0  0  0  0  0
   11.8442   -5.5942   -6.6030 C   0  0  0  1  0  0  0  0  0  0  0  0
   12.6693   -5.2952   -4.3218 C   0  0  0  1  0  0  0  0  0  0  0  0
   13.2320   -5.6441   -3.5198 H   0  0  0  1  0  0  0  0  0  0  0  0
   15.3894   -7.1664   -4.4645 C   0  0  0  1  0  0  0  0  0  0  0  0
   15.5903   -6.4617   -3.6847 H   0  0  0  1  0  0  0  0  0  0  0  0
   15.5988   -6.5224   -5.8382 C   0  0  0  1  0  0  0  0  0  0  0  0
   16.5563   -6.7796   -6.2407 H   0  0  0  1  0  0  0  0  0  0  0  0
   14.1166   -6.2355   -7.7305 O   0  0  0  1  0  0  0  0  0  0  0  0
   13.9639   -5.3547   -7.3807 H   0  0  0  1  0  0  0  0  0  0  0  0
   11.1750   -4.4077   -6.4724 N   0  0  0  1  0  0  0  0  0  0  0  0
   10.6320   -4.0946   -7.2257 H   0  0  0  1  0  0  0  0  0  0  0  0
   11.7794   -6.2539   -7.6273 O   0  0  0  1  0  0  0  0  0  0  0  0
   11.9672   -4.1133   -4.2473 C   0  0  0  1  0  0  0  0  0  0  0  0
   11.9937   -3.5751   -3.3578 H   0  0  0  1  0  0  0  0  0  0  0  0
   16.2540   -8.3243   -4.3066 C   0  0  0  1  0  0  0  0  0  0  0  0
   15.9804   -9.0569   -5.0369 H   0  0  0  1  0  0  0  0  0  0  0  0
   16.1101   -8.7267   -3.3256 H   0  0  0  1  0  0  0  0  0  0  0  0
   15.4802   -5.1011   -5.7612 O   0  0  0  1  0  0  0  0  0  0  0  0
   15.6497   -4.7181   -6.6250 H   0  0  0  1  0  0  0  0  0  0  0  0
   11.2274   -3.6091   -5.3037 C   0  0  0  1  0  0  0  0  0  0  0  0
   17.6454   -8.0083   -4.4730 O   0  0  0  1  0  0  0  0  0  0  0  0
   10.6522   -2.5356   -5.2317 O   0  0  0  1  0  0  0  0  0  0  0  0
   18.5081   -7.0178   -3.5089 P   0  0  0  1  0  0  0  0  0  0  0  0
   18.6672   -8.1445   -2.3849 O   0  0  0  1  0  0  0  0  0  0  0  0
   19.8264   -6.7248   -4.1243 O   0  0  0  0  0  0  0  0  0  0  0  0
   17.6704   -5.9147   -3.0281 O   0  0  0  1  0  0  0  0  0  0  0  0
   19.6337   -9.3451   -2.1530 P   0  0  0  1  0  0  0  0  0  0  0  0
   20.1949   -9.9814   -3.3624 O   0  0  0  0  0  0  0  0  0  0  0  0
   20.7159   -8.7967   -1.2822 O   0  0  0  1  0  0  0  0  0  0  0  0
   18.8059  -10.4390   -1.3820 O   0  0  0  1  0  0  0  0  0  0  0  0
   18.1681  -11.4445   -2.1224 C   0  0  0  1  0  0  0  0  0  0  0  0
   17.1423  -11.5108   -1.8252 H   0  0  0  1  0  0  0  0  0  0  0  0
   18.8601  -12.7840   -1.8614 C   0  0  0  1  0  0  0  0  0  0  0  0
   18.7366  -13.0503   -0.8325 H   0  0  0  1  0  0  0  0  0  0  0  0
   20.2517  -12.6610   -2.1584 O   0  0  0  1  0  0  0  0  0  0  0  0
   20.4143  -11.8183   -2.5887 H   0  0  0  1  0  0  0  0  0  0  0  0
   18.2477  -13.4507   -4.2031 C   0  0  0  1  0  0  0  0  0  0  0  0
   19.2536  -13.4025   -4.5646 H   0  0  0  1  0  0  0  0  0  0  0  0
   17.5136  -14.4121   -4.9626 O   0  0  0  1  0  0  0  0  0  0  0  0
   17.8453  -14.4300   -5.8633 H   0  0  0  1  0  0  0  0  0  0  0  0
   18.2568  -13.8659   -2.7335 C   0  0  0  1  0  0  0  0  0  0  0  0
   18.8333  -14.7611   -2.6275 H   0  0  0  1  0  0  0  0  0  0  0  0
   17.5907  -12.0811   -4.3495 C   0  0  0  1  0  0  0  0  0  0  0  0
   16.5617  -12.1523   -4.0651 H   0  0  0  1  0  0  0  0  0  0  0  0
   17.6856  -11.6387   -5.7813 C   0  0  0  1  0  0  0  0  0  0  0  0
   17.6604  -12.4961   -6.4209 H   0  0  0  1  0  0  0  0  0  0  0  0
   18.6035  -11.1092   -5.9299 H   0  0  0  1  0  0  0  0  0  0  0  0
   16.5922  -10.7851   -6.0920 O   0  0  0  1  0  0  0  0  0  0  0  0
   16.7755  -10.3136   -6.9079 H   0  0  0  1  0  0  0  0  0  0  0  0
   18.2396  -11.1250   -3.5208 O   0  0  0  1  0  0  0  0  0  0  0  0
   16.9146  -14.1104   -2.3104 O   0  0  0  1  0  0  0  0  0  0  0  0
   16.3700  -13.3466   -2.5148 H   0  0  0  1  0  0  0  0  0  0  0  0
  1  2  1  0  0  0  0
  1  3  1  0  0  0  0
  1  4  1  0  0  0  0
  1  5  1  0  0  0  0
  3  7  1  0  0  0  0
  3  8  1  0  0  0  0
  4 10  1  0  0  0  0
  5  6  1  0  0  0  0
  5 12  1  0  0  0  0
  5 14  1  0  0  0  0
  7 16  1  0  0  0  0
  7 18  2  0  0  0  0
  8  9  1  0  0  0  0
  8 19  2  0  0  0  0
 10 11  1  0  0  0  0
 10 12  1  0  0  0  0
 10 21  1  0  0  0  0
 12 13  1  0  0  0  0
 12 24  1  0  0  0  0
 14 15  1  0  0  0  0
 16 17  1  0  0  0  0
 16 26  1  0  0  0  0
 19 20  1  0  0  0  0
 19 26  1  0  0  0  0
 21 22  1  0  0  0  0
 21 23  1  0  0  0  0
 21 27  1  0  0  0  0
 24 25  1  0  0  0  0
 26 28  2  0  0  0  0
 27 29  1  0  0  0  0
 29 30  1  0  0  0  0
 29 31  1  0  0  0  0
 29 32  2  0  0  0  0
 30 33  1  0  0  0  0
 33 34  1  0  0  0  0
 33 35  2  0  0  0  0
 33 36  1  0  0  0  0
 36 37  1  0  0  0  0
 37 38  1  0  0  0  0
 37 39  1  0  0  0  0
 37 56  1  0  0  0  0
 39 40  1  0  0  0  0
 39 41  1  0  0  0  0
 39 47  1  0  0  0  0
 41 42  1  0  0  0  0
 43 44  1  0  0  0  0
 43 45  1  0  0  0  0
 43 47  1  0  0  0  0
 43 49  1  0  0  0  0
 45 46  1  0  0  0  0
 47 48  1  0  0  0  0
 47 57  1  0  0  0  0
 49 50  1  0  0  0  0
 49 51  1  0  0  0  0
 49 56  1  0  0  0  0
 51 52  1  0  0  0  0
 51 53  1  0  0  0  0
 51 54  1  0  0  0  0
 54 55  1  0  0  0  0
 57 58  1  0  0  0  0
M  BCL ATM C_TeTeTeTe H_S N_TrTrTrPi2 O_Te2Te2TeTe C_TeTeTeTe H_S C_TrTrTrPi C_TrTrTrPi H_S C_TeTeTeTe H_S C_TeTeTeTe H_S O_Te2Te2TeTe H_S N_TrTrTrPi2 H_S O_Tr2Tr2TrPi C_TrTrTrPi H_S C_TeTeTeTe H_S H_S O_Te2Te2TeTe H_S C_TrTrTrPi O_Tr2TrTrPi2 O_Tr2Tr2TrPi P_TeTeTeTePi O_Tr2TrTrPi2 O_Te2Te2TeTe O_Tr2Tr2TrPi P_TeTeTeTePi O_Te2Te2TeTe O_Tr2Tr2TrPi O_Tr2TrTrPi2 C_TeTeTeTe H_S C_TeTeTeTe H_S O_Te2Te2TeTe H_S C_TeTeTeTe H_S O_Te2Te2TeTe H_S C_TeTeTeTe H_S C_TeTeTeTe H_S C_TeTeTeTe H_S H_S O_Te2Te2TeTe H_S O_Te2Te2TeTe O_Te2Te2TeTe H_S
M  BCL BND NonConjugatedSingleBond NonConjugatedSingleBond NonConjugatedSingleBondInRing NonConjugatedSingleBondInRing ConjugatedSingleBondInRing ConjugatedSingleBondInRing NonConjugatedSingleBondInRing NonConjugatedSingleBond NonConjugatedSingleBondInRing NonConjugatedSingleBond ConjugatedSingleBondInRing ConjugatedDoubleBond NonConjugatedSingleBond ConjugatedDoubleBondInRing NonConjugatedSingleBond NonConjugatedSingleBondInRing NonConjugatedSingleBond NonConjugatedSingleBond NonConjugatedSingleBond NonConjugatedSingleBond NonConjugatedSingleBond ConjugatedSingleBondInRing NonConjugatedSingleBond ConjugatedSingleBondInRing NonConjugatedSingleBond NonConjugatedSingleBond NonConjugatedSingleBond NonConjugatedSingleBond ConjugatedDoubleBond ConjugatedSingleBond ConjugatedSingleBond ConjugatedSingleBond ConjugatedDoubleBond ConjugatedSingleBond ConjugatedSingleBond ConjugatedDoubleBond ConjugatedSingleBond NonConjugatedSingleBond NonConjugatedSingleBond NonConjugatedSingleBondInRing NonConjugatedSingleBondInRing NonConjugatedSingleBond NonConjugatedSingleBond NonConjugatedSingleBondInRing NonConjugatedSingleBond NonConjugatedSingleBond NonConjugatedSingleBond NonConjugatedSingleBondInRing NonConjugatedSingleBondInRing NonConjugatedSingleBond NonConjugatedSingleBond NonConjugatedSingleBond NonConjugatedSingleBond NonConjugatedSingleBond NonConjugatedSingleBondInRing NonConjugatedSingleBond NonConjugatedSingleBond NonConjugatedSingleBond NonConjugatedSingleBond NonConjugatedSingleBond
M  BCL CHI   1   S   5   S  10   S  12   R  29   S  33   R  37   S  39   R  43   R  47   R  49   S
M  BCL DBI - Z - - -
M  END
> <ConfClashScore>
0.000504423 

> <ConfOneFourInteractionScore>
-0.954758 

> <ConfScore>
0.214192 

> <ConfScorePBest>
0.00665247 

> <ConfTolerance>
1.77666 

$$$$
ChEBI.****
  PyMOL2.5          3D                             0

 58 60  0  0  0  0  0  0  0  0999 V2000
   20.3056  -15.4843    0.1157 C   0  0  0  1  0  0  0  0  0  0  0  0
   20.0377  -15.9952   -0.7855 H   0  0  0  1  0  0  0  0  0  0  0  0
   21.7671  -15.3100    0.1661 N   0  0  0  1  0  0  0  0  0  0  0  0
   19.6569  -14.2320    0.1843 O   0  0  0  1  0  0  0  0  0  0  0  0
   19.8220  -16.2592    1.3281 C   0  0  0  1  0  0  0  0  0  0  0  0
   18.9000  -16.7621    1.1237 H   0  0  0  1  0  0  0  0  0  0  0  0
   22.2802  -14.2073    0.7811 C   0  0  0  1  0  0  0  0  0  0  0  0
   22.5735  -16.2657   -0.4094 C   0  0  0  1  0  0  0  0  0  0  0  0
   22.1390  -17.0866   -0.8773 H   0  0  0  1  0  0  0  0  0  0  0  0
   19.0628  -14.0401    1.4970 C   0  0  0  1  0  0  0  0  0  0  0  0
   19.3373  -13.0873    1.8992 H   0  0  0  1  0  0  0  0  0  0  0  0
   19.6337  -15.1702    2.3526 C   0  0  0  1  0  0  0  0  0  0  0  0
   18.9459  -15.4674    3.1164 H   0  0  0  1  0  0  0  0  0  0  0  0
   20.7988  -17.2098    1.7575 O   0  0  0  1  0  0  0  0  0  0  0  0
   20.9879  -17.0764    2.6892 H   0  0  0  1  0  0  0  0  0  0  0  0
   23.6380  -14.1159    0.8015 N   0  0  0  1  0  0  0  0  0  0  0  0
   24.0228  -13.3269    1.2373 H   0  0  0  1  0  0  0  0  0  0  0  0
   21.5663  -13.3544    1.2825 O   0  0  0  1  0  0  0  0  0  0  0  0
   23.9061  -16.1567   -0.3773 C   0  0  0  1  0  0  0  0  0  0  0  0
   24.4963  -16.8900   -0.8195 H   0  0  0  1  0  0  0  0  0  0  0  0
   17.5747  -14.1388    1.4203 C   0  0  0  1  0  0  0  0  0  0  0  0
   17.1529  -14.0535    2.4000 H   0  0  0  1  0  0  0  0  0  0  0  0
   17.2934  -15.0777    0.9909 H   0  0  0  1  0  0  0  0  0  0  0  0
   20.8762  -14.7954    2.9493 O   0  0  0  1  0  0  0  0  0  0  0  0
   21.5413  -15.4576    2.7473 H   0  0  0  1  0  0  0  0  0  0  0  0
   24.5264  -15.0308    0.2658 C   0  0  0  1  0  0  0  0  0  0  0  0
   17.1038  -13.0521    0.5835 O   0  0  0  1  0  0  0  0  0  0  0  0
   25.7386  -14.8931    0.3336 O   0  0  0  1  0  0  0  0  0  0  0  0
   17.2395  -11.5134    1.0672 P   0  0  0  1  0  0  0  0  0  0  0  0
   18.8120  -11.2988    0.8135 O   0  0  0  1  0  0  0  0  0  0  0  0
   16.5854  -10.6040    0.0996 O   0  0  0  0  0  0  0  0  0  0  0  0
   16.8536  -11.4363    2.4846 O   0  0  0  1  0  0  0  0  0  0  0  0
   19.5105  -10.2773   -0.1921 P   0  0  0  1  0  0  0  0  0  0  0  0
   19.5358   -8.9162    0.5718 O   0  0  0  0  0  0  0  0  0  0  0  0
   20.9145  -10.7802   -0.3642 O   0  0  0  1  0  0  0  0  0  0  0  0
   18.6889  -10.1761   -1.5217 O   0  0  0  1  0  0  0  0  0  0  0  0
   18.0883  -11.2748   -2.2057 C   0  0  0  1  0  0  0  0  0  0  0  0
   17.0668  -11.3696   -1.9017 H   0  0  0  1  0  0  0  0  0  0  0  0
   18.8422  -12.5609   -1.8612 C   0  0  0  1  0  0  0  0  0  0  0  0
   18.7315  -12.7659   -0.8169 H   0  0  0  1  0  0  0  0  0  0  0  0
   20.2169  -12.3937   -2.1677 O   0  0  0  1  0  0  0  0  0  0  0  0
   20.5425  -13.1769   -2.6173 H   0  0  0  1  0  0  0  0  0  0  0  0
   18.2614  -13.4049   -4.1532 C   0  0  0  1  0  0  0  0  0  0  0  0
   19.2639  -13.3332   -4.5203 H   0  0  0  1  0  0  0  0  0  0  0  0
   17.5725  -14.4470   -4.8475 O   0  0  0  1  0  0  0  0  0  0  0  0
   18.1047  -14.7442   -5.5892 H   0  0  0  1  0  0  0  0  0  0  0  0
   18.2900  -13.7238   -2.6600 C   0  0  0  1  0  0  0  0  0  0  0  0
   18.9078  -14.5824   -2.4985 H   0  0  0  1  0  0  0  0  0  0  0  0
   17.5411  -12.0797   -4.3854 C   0  0  0  1  0  0  0  0  0  0  0  0
   16.5166  -12.1804   -4.0939 H   0  0  0  1  0  0  0  0  0  0  0  0
   17.6151  -11.7264   -5.8430 C   0  0  0  1  0  0  0  0  0  0  0  0
   18.2003  -12.4537   -6.3659 H   0  0  0  1  0  0  0  0  0  0  0  0
   18.0572  -10.7594   -5.9625 H   0  0  0  1  0  0  0  0  0  0  0  0
   16.2864  -11.7184   -6.3483 O   0  0  0  1  0  0  0  0  0  0  0  0
   15.6704  -11.8911   -5.6326 H   0  0  0  1  0  0  0  0  0  0  0  0
   18.1447  -11.0430   -3.6220 O   0  0  0  1  0  0  0  0  0  0  0  0
   16.9608  -14.0028   -2.2180 O   0  0  0  1  0  0  0  0  0  0  0  0
   16.3357  -13.4986   -2.7439 H   0  0  0  1  0  0  0  0  0  0  0  0
  1  2  1  0  0  0  0
  1  3  1  0  0  0  0
  1  4  1  0  0  0  0
  1  5  1  0  0  0  0
  3  7  1  0  0  0  0
  3  8  1  0  0  0  0
  4 10  1  0  0  0  0
  5  6  1  0  0  0  0
  5 12  1  0  0  0  0
  5 14  1  0  0  0  0
  7 16  1  0  0  0  0
  7 18  2  0  0  0  0
  8  9  1  0  0  0  0
  8 19  2  0  0  0  0
 10 11  1  0  0  0  0
 10 12  1  0  0  0  0
 10 21  1  0  0  0  0
 12 13  1  0  0  0  0
 12 24  1  0  0  0  0
 14 15  1  0  0  0  0
 16 17  1  0  0  0  0
 16 26  1  0  0  0  0
 19 20  1  0  0  0  0
 19 26  1  0  0  0  0
 21 22  1  0  0  0  0
 21 23  1  0  0  0  0
 21 27  1  0  0  0  0
 24 25  1  0  0  0  0
 26 28  2  0  0  0  0
 27 29  1  0  0  0  0
 29 30  1  0  0  0  0
 29 31  1  0  0  0  0
 29 32  2  0  0  0  0
 30 33  1  0  0  0  0
 33 34  1  0  0  0  0
 33 35  2  0  0  0  0
 33 36  1  0  0  0  0
 36 37  1  0  0  0  0
 37 38  1  0  0  0  0
 37 39  1  0  0  0  0
 37 56  1  0  0  0  0
 39 40  1  0  0  0  0
 39 41  1  0  0  0  0
 39 47  1  0  0  0  0
 41 42  1  0  0  0  0
 43 44  1  0  0  0  0
 43 45  1  0  0  0  0
 43 47  1  0  0  0  0
 43 49  1  0  0  0  0
 45 46  1  0  0  0  0
 47 48  1  0  0  0  0
 47 57  1  0  0  0  0
 49 50  1  0  0  0  0
 49 51  1  0  0  0  0
 49 56  1  0  0  0  0
 51 52  1  0  0  0  0
 51 53  1  0  0  0  0
 51 54  1  0  0  0  0
 54 55  1  0  0  0  0
 57 58  1  0  0  0  0
M  BCL ATM C_TeTeTeTe H_S N_TrTrTrPi2 O_Te2Te2TeTe C_TeTeTeTe H_S C_TrTrTrPi C_TrTrTrPi H_S C_TeTeTeTe H_S C_TeTeTeTe H_S O_Te2Te2TeTe H_S N_TrTrTrPi2 H_S O_Tr2Tr2TrPi C_TrTrTrPi H_S C_TeTeTeTe H_S H_S O_Te2Te2TeTe H_S C_TrTrTrPi O_Tr2TrTrPi2 O_Tr2Tr2TrPi P_TeTeTeTePi O_Tr2TrTrPi2 O_Te2Te2TeTe O_Tr2Tr2TrPi P_TeTeTeTePi O_Te2Te2TeTe O_Tr2Tr2TrPi O_Tr2TrTrPi2 C_TeTeTeTe H_S C_TeTeTeTe H_S O_Te2Te2TeTe H_S C_TeTeTeTe H_S O_Te2Te2TeTe H_S C_TeTeTeTe H_S C_TeTeTeTe H_S C_TeTeTeTe H_S H_S O_Te2Te2TeTe H_S O_Te2Te2TeTe O_Te2Te2TeTe H_S
M  BCL BND NonConjugatedSingleBond NonConjugatedSingleBond NonConjugatedSingleBondInRing NonConjugatedSingleBondInRing ConjugatedSingleBondInRing ConjugatedSingleBondInRing NonConjugatedSingleBondInRing NonConjugatedSingleBond NonConjugatedSingleBondInRing NonConjugatedSingleBond ConjugatedSingleBondInRing ConjugatedDoubleBond NonConjugatedSingleBond ConjugatedDoubleBondInRing NonConjugatedSingleBond NonConjugatedSingleBondInRing NonConjugatedSingleBond NonConjugatedSingleBond NonConjugatedSingleBond NonConjugatedSingleBond NonConjugatedSingleBond ConjugatedSingleBondInRing NonConjugatedSingleBond ConjugatedSingleBondInRing NonConjugatedSingleBond NonConjugatedSingleBond NonConjugatedSingleBond NonConjugatedSingleBond ConjugatedDoubleBond ConjugatedSingleBond ConjugatedSingleBond ConjugatedSingleBond ConjugatedDoubleBond ConjugatedSingleBond ConjugatedSingleBond ConjugatedDoubleBond ConjugatedSingleBond NonConjugatedSingleBond NonConjugatedSingleBond NonConjugatedSingleBondInRing NonConjugatedSingleBondInRing NonConjugatedSingleBond NonConjugatedSingleBond NonConjugatedSingleBondInRing NonConjugatedSingleBond NonConjugatedSingleBond NonConjugatedSingleBond NonConjugatedSingleBondInRing NonConjugatedSingleBondInRing NonConjugatedSingleBond NonConjugatedSingleBond NonConjugatedSingleBond NonConjugatedSingleBond NonConjugatedSingleBond NonConjugatedSingleBondInRing NonConjugatedSingleBond NonConjugatedSingleBond NonConjugatedSingleBond NonConjugatedSingleBond NonConjugatedSingleBond
M  BCL CHI   1   S   5   S  10   S  12   R  29   S  33   R  37   S  39   R  43   R  47   R  49   S
M  BCL DBI - Z - - -
M  END
> <ConfClashScore>
0 

> <ConfOneFourInteractionScore>
-0.955966 

> <ConfScore>
0.232172 

> <ConfScorePBest>
0.00654947 

> <ConfTolerance>
2.27622 

$$$$
ChEBI.****
  PyMOL2.5          3D                             0

 58 60  0  0  0  0  0  0  0  0999 V2000
   23.4288  -10.7097   -7.2085 C   0  0  0  1  0  0  0  0  0  0  0  0
   22.8268  -11.2410   -7.9158 H   0  0  0  1  0  0  0  0  0  0  0  0
   24.8476  -10.8792   -7.5472 N   0  0  0  1  0  0  0  0  0  0  0  0
   23.0749   -9.3084   -7.1923 O   0  0  0  1  0  0  0  0  0  0  0  0
   23.1525  -11.2070   -5.7865 C   0  0  0  1  0  0  0  0  0  0  0  0
   22.1875  -11.6646   -5.7207 H   0  0  0  1  0  0  0  0  0  0  0  0
   25.3679  -12.1568   -7.6369 C   0  0  0  1  0  0  0  0  0  0  0  0
   25.6392   -9.7338   -7.7714 C   0  0  0  1  0  0  0  0  0  0  0  0
   25.2093   -8.7900   -7.6934 H   0  0  0  1  0  0  0  0  0  0  0  0
   22.6411   -8.8916   -5.9262 C   0  0  0  1  0  0  0  0  0  0  0  0
   23.0261   -7.9205   -5.6944 H   0  0  0  1  0  0  0  0  0  0  0  0
   23.2094   -9.9458   -4.9652 C   0  0  0  1  0  0  0  0  0  0  0  0
   22.6063  -10.0308   -4.0854 H   0  0  0  1  0  0  0  0  0  0  0  0
   24.1511  -12.1376   -5.3661 O   0  0  0  1  0  0  0  0  0  0  0  0
   23.7403  -12.8406   -4.8575 H   0  0  0  1  0  0  0  0  0  0  0  0
   26.6964  -12.2347   -7.9359 N   0  0  0  1  0  0  0  0  0  0  0  0
   27.0816  -13.1336   -7.9995 H   0  0  0  1  0  0  0  0  0  0  0  0
   24.6829  -13.1507   -7.4600 O   0  0  0  1  0  0  0  0  0  0  0  0
   26.9515   -9.8459   -8.0869 C   0  0  0  1  0  0  0  0  0  0  0  0
   27.5202   -8.9959   -8.2757 H   0  0  0  1  0  0  0  0  0  0  0  0
   21.1671   -8.8654   -5.8611 C   0  0  0  1  0  0  0  0  0  0  0  0
   20.8120   -9.8196   -5.5320 H   0  0  0  1  0  0  0  0  0  0  0  0
   20.7751   -8.6547   -6.8342 H   0  0  0  1  0  0  0  0  0  0  0  0
   24.5527   -9.6332   -4.5939 O   0  0  0  1  0  0  0  0  0  0  0  0
   24.8161   -8.8083   -5.0085 H   0  0  0  1  0  0  0  0  0  0  0  0
   27.5593  -11.1680   -8.1596 C   0  0  0  1  0  0  0  0  0  0  0  0
   20.7193   -7.8438   -4.9344 O   0  0  0  1  0  0  0  0  0  0  0  0
   28.7446  -11.3279   -8.4002 O   0  0  0  1  0  0  0  0  0  0  0  0
   19.2707   -7.8525   -4.4882 P   0  0  0  1  0  0  0  0  0  0  0  0
   19.3357   -8.8799   -3.2588 O   0  0  0  1  0  0  0  0  0  0  0  0
   18.7409   -6.5118   -4.0452 O   0  0  0  0  0  0  0  0  0  0  0  0
   18.4985   -8.5581   -5.5156 O   0  0  0  1  0  0  0  0  0  0  0  0
   18.6825   -8.7995   -1.8196 P   0  0  0  1  0  0  0  0  0  0  0  0
   19.5283   -8.0085   -0.8893 O   0  0  0  0  0  0  0  0  0  0  0  0
   17.2882   -8.3992   -2.0128 O   0  0  0  1  0  0  0  0  0  0  0  0
   18.7246  -10.3093   -1.3783 O   0  0  0  1  0  0  0  0  0  0  0  0
   18.0706  -11.3231   -2.1583 C   0  0  0  1  0  0  0  0  0  0  0  0
   17.0344  -11.3638   -1.8945 H   0  0  0  1  0  0  0  0  0  0  0  0
   18.7206  -12.6715   -1.8971 C   0  0  0  1  0  0  0  0  0  0  0  0
   18.4780  -12.9816   -0.9021 H   0  0  0  1  0  0  0  0  0  0  0  0
   20.1364  -12.5279   -2.0199 O   0  0  0  1  0  0  0  0  0  0  0  0
   20.3584  -12.3049   -2.9268 H   0  0  0  1  0  0  0  0  0  0  0  0
   18.1942  -13.3167   -4.3028 C   0  0  0  1  0  0  0  0  0  0  0  0
   19.1671  -13.3974   -4.7407 H   0  0  0  1  0  0  0  0  0  0  0  0
   17.2845  -14.1672   -5.0022 O   0  0  0  1  0  0  0  0  0  0  0  0
   17.7668  -14.8985   -5.3948 H   0  0  0  1  0  0  0  0  0  0  0  0
   18.2591  -13.7331   -2.8584 C   0  0  0  1  0  0  0  0  0  0  0  0
   18.9336  -14.5603   -2.7842 H   0  0  0  1  0  0  0  0  0  0  0  0
   17.7339  -11.9341   -4.3931 C   0  0  0  1  0  0  0  0  0  0  0  0
   16.6742  -11.9545   -4.2462 H   0  0  0  1  0  0  0  0  0  0  0  0
   18.0376  -11.4713   -5.7890 C   0  0  0  1  0  0  0  0  0  0  0  0
   17.5808  -10.5181   -5.9550 H   0  0  0  1  0  0  0  0  0  0  0  0
   17.6502  -12.1800   -6.4908 H   0  0  0  1  0  0  0  0  0  0  0  0
   19.4442  -11.3574   -5.9602 O   0  0  0  1  0  0  0  0  0  0  0  0
   19.8908  -11.9282   -5.3307 H   0  0  0  1  0  0  0  0  0  0  0  0
   18.2070  -11.0165   -3.5828 O   0  0  0  1  0  0  0  0  0  0  0  0
   16.9489  -14.1479   -2.4605 O   0  0  0  1  0  0  0  0  0  0  0  0
   16.9612  -14.4048   -1.5356 H   0  0  0  1  0  0  0  0  0  0  0  0
  1  2  1  0  0  0  0
  1  3  1  0  0  0  0
  1  4  1  0  0  0  0
  1  5  1  0  0  0  0
  3  7  1  0  0  0  0
  3  8  1  0  0  0  0
  4 10  1  0  0  0  0
  5  6  1  0  0  0  0
  5 12  1  0  0  0  0
  5 14  1  0  0  0  0
  7 16  1  0  0  0  0
  7 18  2  0  0  0  0
  8  9  1  0  0  0  0
  8 19  2  0  0  0  0
 10 11  1  0  0  0  0
 10 12  1  0  0  0  0
 10 21  1  0  0  0  0
 12 13  1  0  0  0  0
 12 24  1  0  0  0  0
 14 15  1  0  0  0  0
 16 17  1  0  0  0  0
 16 26  1  0  0  0  0
 19 20  1  0  0  0  0
 19 26  1  0  0  0  0
 21 22  1  0  0  0  0
 21 23  1  0  0  0  0
 21 27  1  0  0  0  0
 24 25  1  0  0  0  0
 26 28  2  0  0  0  0
 27 29  1  0  0  0  0
 29 30  1  0  0  0  0
 29 31  1  0  0  0  0
 29 32  2  0  0  0  0
 30 33  1  0  0  0  0
 33 34  1  0  0  0  0
 33 35  2  0  0  0  0
 33 36  1  0  0  0  0
 36 37  1  0  0  0  0
 37 38  1  0  0  0  0
 37 39  1  0  0  0  0
 37 56  1  0  0  0  0
 39 40  1  0  0  0  0
 39 41  1  0  0  0  0
 39 47  1  0  0  0  0
 41 42  1  0  0  0  0
 43 44  1  0  0  0  0
 43 45  1  0  0  0  0
 43 47  1  0  0  0  0
 43 49  1  0  0  0  0
 45 46  1  0  0  0  0
 47 48  1  0  0  0  0
 47 57  1  0  0  0  0
 49 50  1  0  0  0  0
 49 51  1  0  0  0  0
 49 56  1  0  0  0  0
 51 52  1  0  0  0  0
 51 53  1  0  0  0  0
 51 54  1  0  0  0  0
 54 55  1  0  0  0  0
 57 58  1  0  0  0  0
M  BCL ATM C_TeTeTeTe H_S N_TrTrTrPi2 O_Te2Te2TeTe C_TeTeTeTe H_S C_TrTrTrPi C_TrTrTrPi H_S C_TeTeTeTe H_S C_TeTeTeTe H_S O_Te2Te2TeTe H_S N_TrTrTrPi2 H_S O_Tr2Tr2TrPi C_TrTrTrPi H_S C_TeTeTeTe H_S H_S O_Te2Te2TeTe H_S C_TrTrTrPi O_Tr2TrTrPi2 O_Tr2Tr2TrPi P_TeTeTeTePi O_Tr2TrTrPi2 O_Te2Te2TeTe O_Tr2Tr2TrPi P_TeTeTeTePi O_Te2Te2TeTe O_Tr2Tr2TrPi O_Tr2TrTrPi2 C_TeTeTeTe H_S C_TeTeTeTe H_S O_Te2Te2TeTe H_S C_TeTeTeTe H_S O_Te2Te2TeTe H_S C_TeTeTeTe H_S C_TeTeTeTe H_S C_TeTeTeTe H_S H_S O_Te2Te2TeTe H_S O_Te2Te2TeTe O_Te2Te2TeTe H_S
M  BCL BND NonConjugatedSingleBond NonConjugatedSingleBond NonConjugatedSingleBondInRing NonConjugatedSingleBondInRing ConjugatedSingleBondInRing ConjugatedSingleBondInRing NonConjugatedSingleBondInRing NonConjugatedSingleBond NonConjugatedSingleBondInRing NonConjugatedSingleBond ConjugatedSingleBondInRing ConjugatedDoubleBond NonConjugatedSingleBond ConjugatedDoubleBondInRing NonConjugatedSingleBond NonConjugatedSingleBondInRing NonConjugatedSingleBond NonConjugatedSingleBond NonConjugatedSingleBond NonConjugatedSingleBond NonConjugatedSingleBond ConjugatedSingleBondInRing NonConjugatedSingleBond ConjugatedSingleBondInRing NonConjugatedSingleBond NonConjugatedSingleBond NonConjugatedSingleBond NonConjugatedSingleBond ConjugatedDoubleBond ConjugatedSingleBond ConjugatedSingleBond ConjugatedSingleBond ConjugatedDoubleBond ConjugatedSingleBond ConjugatedSingleBond ConjugatedDoubleBond ConjugatedSingleBond NonConjugatedSingleBond NonConjugatedSingleBond NonConjugatedSingleBondInRing NonConjugatedSingleBondInRing NonConjugatedSingleBond NonConjugatedSingleBond NonConjugatedSingleBondInRing NonConjugatedSingleBond NonConjugatedSingleBond NonConjugatedSingleBond NonConjugatedSingleBondInRing NonConjugatedSingleBondInRing NonConjugatedSingleBond NonConjugatedSingleBond NonConjugatedSingleBond NonConjugatedSingleBond NonConjugatedSingleBond NonConjugatedSingleBondInRing NonConjugatedSingleBond NonConjugatedSingleBond NonConjugatedSingleBond NonConjugatedSingleBond NonConjugatedSingleBond
M  BCL CHI   1   S   5   S  10   S  12   R  29   S  33   R  37   S  39   R  43   R  47   R  49   S
M  BCL DBI - Z - - -
M  END
> <ConfClashScore>
0 

> <ConfOneFourInteractionScore>
-0.960786 

> <ConfScore>
0.25096 

> <ConfScorePBest>
0.00644647 

> <ConfTolerance>
1.75367 

$$$$
ChEBI.****
  PyMOL2.5          3D                             0

 58 60  0  0  0  0  0  0  0  0999 V2000
   17.4620   -3.7724   -0.8044 C   0  0  0  1  0  0  0  0  0  0  0  0
   17.4856   -3.8318   -1.8725 H   0  0  0  1  0  0  0  0  0  0  0  0
   16.0735   -3.7632   -0.3466 N   0  0  0  1  0  0  0  0  0  0  0  0
   18.1365   -4.8587   -0.2533 O   0  0  0  1  0  0  0  0  0  0  0  0
   18.1793   -2.4923   -0.3332 C   0  0  0  1  0  0  0  0  0  0  0  0
   18.1192   -1.7199   -1.0712 H   0  0  0  1  0  0  0  0  0  0  0  0
   15.4731   -4.9526   -0.0125 C   0  0  0  1  0  0  0  0  0  0  0  0
   15.4089   -2.5698   -0.2631 C   0  0  0  1  0  0  0  0  0  0  0  0
   15.9049   -1.7055   -0.5608 H   0  0  0  1  0  0  0  0  0  0  0  0
   19.4500   -4.4580    0.2128 C   0  0  0  1  0  0  0  0  0  0  0  0
   19.5179   -4.5843    1.2731 H   0  0  0  1  0  0  0  0  0  0  0  0
   19.6231   -2.9789   -0.1535 C   0  0  0  1  0  0  0  0  0  0  0  0
   20.1803   -2.8708   -1.0606 H   0  0  0  1  0  0  0  0  0  0  0  0
   17.6355   -2.0177    0.8993 O   0  0  0  1  0  0  0  0  0  0  0  0
   17.3849   -1.0958    0.8050 H   0  0  0  1  0  0  0  0  0  0  0  0
   14.1623   -4.8620    0.4383 N   0  0  0  1  0  0  0  0  0  0  0  0
   13.7049   -5.6939    0.6818 H   0  0  0  1  0  0  0  0  0  0  0  0
   16.0544   -6.0212   -0.1058 O   0  0  0  1  0  0  0  0  0  0  0  0
   14.1441   -2.4599    0.1857 C   0  0  0  1  0  0  0  0  0  0  0  0
   13.6796   -1.5320    0.2544 H   0  0  0  1  0  0  0  0  0  0  0  0
   20.5036   -5.2785   -0.4555 C   0  0  0  1  0  0  0  0  0  0  0  0
   21.4056   -4.7100   -0.5456 H   0  0  0  1  0  0  0  0  0  0  0  0
   20.1710   -5.5771   -1.4276 H   0  0  0  1  0  0  0  0  0  0  0  0
   20.2776   -2.2644    0.8960 O   0  0  0  1  0  0  0  0  0  0  0  0
   20.2092   -2.7625    1.7138 H   0  0  0  1  0  0  0  0  0  0  0  0
   13.4517   -3.6671    0.5685 C   0  0  0  1  0  0  0  0  0  0  0  0
   20.7374   -6.4468    0.3657 O   0  0  0  1  0  0  0  0  0  0  0  0
   12.3049   -3.6445    0.9843 O   0  0  0  1  0  0  0  0  0  0  0  0
   20.4198   -7.9319   -0.1944 P   0  0  0  1  0  0  0  0  0  0  0  0
   18.8173   -7.9992   -0.2871 O   0  0  0  1  0  0  0  0  0  0  0  0
   20.8861   -8.0977   -1.6024 O   0  0  0  0  0  0  0  0  0  0  0  0
   20.9594   -8.8507    0.8327 O   0  0  0  1  0  0  0  0  0  0  0  0
   17.8343   -9.0335   -0.9481 P   0  0  0  1  0  0  0  0  0  0  0  0
   16.9079   -9.4733    0.1896 O   0  0  0  0  0  0  0  0  0  0  0  0
   17.1158   -8.4699   -2.1127 O   0  0  0  1  0  0  0  0  0  0  0  0
   18.6698  -10.2622   -1.4557 O   0  0  0  1  0  0  0  0  0  0  0  0
   18.1033  -11.3304   -2.2453 C   0  0  0  1  0  0  0  0  0  0  0  0
   17.0496  -11.3858   -2.0676 H   0  0  0  1  0  0  0  0  0  0  0  0
   18.7538  -12.6441   -1.8671 C   0  0  0  1  0  0  0  0  0  0  0  0
   18.4750  -12.8887   -0.8634 H   0  0  0  1  0  0  0  0  0  0  0  0
   20.1719  -12.4920   -1.9443 O   0  0  0  1  0  0  0  0  0  0  0  0
   20.3843  -11.7576   -2.5250 H   0  0  0  1  0  0  0  0  0  0  0  0
   18.3506  -13.4176   -4.2573 C   0  0  0  1  0  0  0  0  0  0  0  0
   19.3611  -13.3684   -4.6058 H   0  0  0  1  0  0  0  0  0  0  0  0
   17.6365  -14.4044   -5.0032 O   0  0  0  1  0  0  0  0  0  0  0  0
   16.9112  -13.9875   -5.4740 H   0  0  0  1  0  0  0  0  0  0  0  0
   18.3359  -13.7826   -2.7796 C   0  0  0  1  0  0  0  0  0  0  0  0
   19.0072  -14.6018   -2.6272 H   0  0  0  1  0  0  0  0  0  0  0  0
   17.6806  -12.0574   -4.4322 C   0  0  0  1  0  0  0  0  0  0  0  0
   16.6532  -12.1269   -4.1413 H   0  0  0  1  0  0  0  0  0  0  0  0
   17.7667  -11.6397   -5.8720 C   0  0  0  1  0  0  0  0  0  0  0  0
   17.3079  -10.6806   -5.9921 H   0  0  0  1  0  0  0  0  0  0  0  0
   17.2587  -12.3576   -6.4815 H   0  0  0  1  0  0  0  0  0  0  0  0
   19.1299  -11.5642   -6.2678 O   0  0  0  1  0  0  0  0  0  0  0  0
   19.5311  -10.7795   -5.8872 H   0  0  0  1  0  0  0  0  0  0  0  0
   18.3421  -11.0871   -3.6148 O   0  0  0  1  0  0  0  0  0  0  0  0
   17.0103  -14.1805   -2.4265 O   0  0  0  1  0  0  0  0  0  0  0  0
   17.0282  -15.0696   -2.0649 H   0  0  0  1  0  0  0  0  0  0  0  0
  1  2  1  0  0  0  0
  1  3  1  0  0  0  0
  1  4  1  0  0  0  0
  1  5  1  0  0  0  0
  3  7  1  0  0  0  0
  3  8  1  0  0  0  0
  4 10  1  0  0  0  0
  5  6  1  0  0  0  0
  5 12  1  0  0  0  0
  5 14  1  0  0  0  0
  7 16  1  0  0  0  0
  7 18  2  0  0  0  0
  8  9  1  0  0  0  0
  8 19  2  0  0  0  0
 10 11  1  0  0  0  0
 10 12  1  0  0  0  0
 10 21  1  0  0  0  0
 12 13  1  0  0  0  0
 12 24  1  0  0  0  0
 14 15  1  0  0  0  0
 16 17  1  0  0  0  0
 16 26  1  0  0  0  0
 19 20  1  0  0  0  0
 19 26  1  0  0  0  0
 21 22  1  0  0  0  0
 21 23  1  0  0  0  0
 21 27  1  0  0  0  0
 24 25  1  0  0  0  0
 26 28  2  0  0  0  0
 27 29  1  0  0  0  0
 29 30  1  0  0  0  0
 29 31  1  0  0  0  0
 29 32  2  0  0  0  0
 30 33  1  0  0  0  0
 33 34  1  0  0  0  0
 33 35  2  0  0  0  0
 33 36  1  0  0  0  0
 36 37  1  0  0  0  0
 37 38  1  0  0  0  0
 37 39  1  0  0  0  0
 37 56  1  0  0  0  0
 39 40  1  0  0  0  0
 39 41  1  0  0  0  0
 39 47  1  0  0  0  0
 41 42  1  0  0  0  0
 43 44  1  0  0  0  0
 43 45  1  0  0  0  0
 43 47  1  0  0  0  0
 43 49  1  0  0  0  0
 45 46  1  0  0  0  0
 47 48  1  0  0  0  0
 47 57  1  0  0  0  0
 49 50  1  0  0  0  0
 49 51  1  0  0  0  0
 49 56  1  0  0  0  0
 51 52  1  0  0  0  0
 51 53  1  0  0  0  0
 51 54  1  0  0  0  0
 54 55  1  0  0  0  0
 57 58  1  0  0  0  0
M  BCL ATM C_TeTeTeTe H_S N_TrTrTrPi2 O_Te2Te2TeTe C_TeTeTeTe H_S C_TrTrTrPi C_TrTrTrPi H_S C_TeTeTeTe H_S C_TeTeTeTe H_S O_Te2Te2TeTe H_S N_TrTrTrPi2 H_S O_Tr2Tr2TrPi C_TrTrTrPi H_S C_TeTeTeTe H_S H_S O_Te2Te2TeTe H_S C_TrTrTrPi O_Tr2TrTrPi2 O_Tr2Tr2TrPi P_TeTeTeTePi O_Tr2TrTrPi2 O_Te2Te2TeTe O_Tr2Tr2TrPi P_TeTeTeTePi O_Te2Te2TeTe O_Tr2Tr2TrPi O_Tr2TrTrPi2 C_TeTeTeTe H_S C_TeTeTeTe H_S O_Te2Te2TeTe H_S C_TeTeTeTe H_S O_Te2Te2TeTe H_S C_TeTeTeTe H_S C_TeTeTeTe H_S C_TeTeTeTe H_S H_S O_Te2Te2TeTe H_S O_Te2Te2TeTe O_Te2Te2TeTe H_S
M  BCL BND NonConjugatedSingleBond NonConjugatedSingleBond NonConjugatedSingleBondInRing NonConjugatedSingleBondInRing ConjugatedSingleBondInRing ConjugatedSingleBondInRing NonConjugatedSingleBondInRing NonConjugatedSingleBond NonConjugatedSingleBondInRing NonConjugatedSingleBond ConjugatedSingleBondInRing ConjugatedDoubleBond NonConjugatedSingleBond ConjugatedDoubleBondInRing NonConjugatedSingleBond NonConjugatedSingleBondInRing NonConjugatedSingleBond NonConjugatedSingleBond NonConjugatedSingleBond NonConjugatedSingleBond NonConjugatedSingleBond ConjugatedSingleBondInRing NonConjugatedSingleBond ConjugatedSingleBondInRing NonConjugatedSingleBond NonConjugatedSingleBond NonConjugatedSingleBond NonConjugatedSingleBond ConjugatedDoubleBond ConjugatedSingleBond ConjugatedSingleBond ConjugatedSingleBond ConjugatedDoubleBond ConjugatedSingleBond ConjugatedSingleBond ConjugatedDoubleBond ConjugatedSingleBond NonConjugatedSingleBond NonConjugatedSingleBond NonConjugatedSingleBondInRing NonConjugatedSingleBondInRing NonConjugatedSingleBond NonConjugatedSingleBond NonConjugatedSingleBondInRing NonConjugatedSingleBond NonConjugatedSingleBond NonConjugatedSingleBond NonConjugatedSingleBondInRing NonConjugatedSingleBondInRing NonConjugatedSingleBond NonConjugatedSingleBond NonConjugatedSingleBond NonConjugatedSingleBond NonConjugatedSingleBond NonConjugatedSingleBondInRing NonConjugatedSingleBond NonConjugatedSingleBond NonConjugatedSingleBond NonConjugatedSingleBond NonConjugatedSingleBond
M  BCL CHI   1   S   5   S  10   S  12   R  29   S  33   R  37   S  39   R  43   R  47   R  49   S
M  BCL DBI - Z - - -
M  END
> <ConfClashScore>
0 

> <ConfOneFourInteractionScore>
-0.97091 

> <ConfScore>
0.258706 

> <ConfScorePBest>
0.00634346 

> <ConfTolerance>
1.93117 

$$$$
ChEBI.****
  PyMOL2.5          3D                             0

 58 60  0  0  0  0  0  0  0  0999 V2000
   14.1639  -11.3616   -2.9953 C   0  0  0  1  0  0  0  0  0  0  0  0
   15.0440  -11.9469   -3.1618 H   0  0  0  1  0  0  0  0  0  0  0  0
   13.4645  -11.8550   -1.7939 N   0  0  0  1  0  0  0  0  0  0  0  0
   14.5021   -9.9781   -2.8463 O   0  0  0  1  0  0  0  0  0  0  0  0
   13.2481  -11.4208   -4.2064 C   0  0  0  1  0  0  0  0  0  0  0  0
   13.2830  -12.3822   -4.6748 H   0  0  0  1  0  0  0  0  0  0  0  0
   13.3352  -13.2122   -1.5929 C   0  0  0  1  0  0  0  0  0  0  0  0
   12.9513  -10.9542   -0.8914 C   0  0  0  1  0  0  0  0  0  0  0  0
   13.0704   -9.9385   -1.0805 H   0  0  0  1  0  0  0  0  0  0  0  0
   14.3117   -9.3030   -4.1038 C   0  0  0  1  0  0  0  0  0  0  0  0
   13.5709   -8.5377   -4.0017 H   0  0  0  1  0  0  0  0  0  0  0  0
   13.8477  -10.3479   -5.0997 C   0  0  0  1  0  0  0  0  0  0  0  0
   14.6701  -10.7329   -5.6656 H   0  0  0  1  0  0  0  0  0  0  0  0
   11.8984  -11.1105   -3.8542 O   0  0  0  1  0  0  0  0  0  0  0  0
   11.3224  -11.8275   -4.1295 H   0  0  0  1  0  0  0  0  0  0  0  0
   12.6708  -13.5856   -0.4500 N   0  0  0  1  0  0  0  0  0  0  0  0
   12.5692  -14.5472   -0.2904 H   0  0  0  1  0  0  0  0  0  0  0  0
   13.7824  -14.0301   -2.3800 O   0  0  0  1  0  0  0  0  0  0  0  0
   12.2956  -11.3316    0.2363 C   0  0  0  1  0  0  0  0  0  0  0  0
   11.9201  -10.6222    0.8977 H   0  0  0  1  0  0  0  0  0  0  0  0
   15.5820   -8.7020   -4.5541 C   0  0  0  1  0  0  0  0  0  0  0  0
   15.4751   -8.3686   -5.5652 H   0  0  0  1  0  0  0  0  0  0  0  0
   16.3579   -9.4369   -4.5005 H   0  0  0  1  0  0  0  0  0  0  0  0
   12.8668   -9.8115   -5.9887 O   0  0  0  1  0  0  0  0  0  0  0  0
   12.0407   -9.6856   -5.5161 H   0  0  0  1  0  0  0  0  0  0  0  0
   12.1339  -12.7376    0.4926 C   0  0  0  1  0  0  0  0  0  0  0  0
   15.9333   -7.5762   -3.7157 O   0  0  0  1  0  0  0  0  0  0  0  0
   11.5559  -13.1537    1.4854 O   0  0  0  1  0  0  0  0  0  0  0  0
   16.7815   -7.7227   -2.3528 P   0  0  0  1  0  0  0  0  0  0  0  0
   18.1396   -8.4031   -2.8622 O   0  0  0  1  0  0  0  0  0  0  0  0
   17.1536   -6.4081   -1.7254 O   0  0  0  0  0  0  0  0  0  0  0  0
   16.1441   -8.6457   -1.4331 O   0  0  0  1  0  0  0  0  0  0  0  0
   19.4045   -9.1894   -2.3293 P   0  0  0  1  0  0  0  0  0  0  0  0
   20.0400   -9.7453   -3.5649 O   0  0  0  0  0  0  0  0  0  0  0  0
   20.1992   -8.4098   -1.3679 O   0  0  0  1  0  0  0  0  0  0  0  0
   18.8057  -10.3806   -1.4867 O   0  0  0  1  0  0  0  0  0  0  0  0
   18.1237  -11.3719   -2.2149 C   0  0  0  1  0  0  0  0  0  0  0  0
   17.1030  -11.4104   -1.8964 H   0  0  0  1  0  0  0  0  0  0  0  0
   18.7839  -12.7216   -1.9882 C   0  0  0  1  0  0  0  0  0  0  0  0
   18.5939  -13.0310   -0.9817 H   0  0  0  1  0  0  0  0  0  0  0  0
   20.1918  -12.5810   -2.1862 O   0  0  0  1  0  0  0  0  0  0  0  0
   20.5311  -11.8990   -1.6019 H   0  0  0  1  0  0  0  0  0  0  0  0
   18.1289  -13.3661   -4.3623 C   0  0  0  1  0  0  0  0  0  0  0  0
   19.0771  -13.4490   -4.8513 H   0  0  0  1  0  0  0  0  0  0  0  0
   17.1882  -14.2089   -5.0076 O   0  0  0  1  0  0  0  0  0  0  0  0
   17.5915  -14.6039   -5.7841 H   0  0  0  1  0  0  0  0  0  0  0  0
   18.2696  -13.7824   -2.9234 C   0  0  0  1  0  0  0  0  0  0  0  0
   18.9454  -14.6111   -2.8848 H   0  0  0  1  0  0  0  0  0  0  0  0
   17.6674  -11.9826   -4.4285 C   0  0  0  1  0  0  0  0  0  0  0  0
   16.6170  -12.0008   -4.2255 H   0  0  0  1  0  0  0  0  0  0  0  0
   17.8974  -11.5207   -5.8387 C   0  0  0  1  0  0  0  0  0  0  0  0
   17.6583  -12.3137   -6.5161 H   0  0  0  1  0  0  0  0  0  0  0  0
   18.9242  -11.2451   -5.9597 H   0  0  0  1  0  0  0  0  0  0  0  0
   17.0711  -10.3977   -6.1154 O   0  0  0  1  0  0  0  0  0  0  0  0
   16.6362  -10.5207   -6.9624 H   0  0  0  1  0  0  0  0  0  0  0  0
   18.1848  -11.0658   -3.6448 O   0  0  0  1  0  0  0  0  0  0  0  0
   16.9830  -14.1939   -2.4567 O   0  0  0  1  0  0  0  0  0  0  0  0
   17.0079  -14.3038   -1.5034 H   0  0  0  1  0  0  0  0  0  0  0  0
  1  2  1  0  0  0  0
  1  3  1  0  0  0  0
  1  4  1  0  0  0  0
  1  5  1  0  0  0  0
  3  7  1  0  0  0  0
  3  8  1  0  0  0  0
  4 10  1  0  0  0  0
  5  6  1  0  0  0  0
  5 12  1  0  0  0  0
  5 14  1  0  0  0  0
  7 16  1  0  0  0  0
  7 18  2  0  0  0  0
  8  9  1  0  0  0  0
  8 19  2  0  0  0  0
 10 11  1  0  0  0  0
 10 12  1  0  0  0  0
 10 21  1  0  0  0  0
 12 13  1  0  0  0  0
 12 24  1  0  0  0  0
 14 15  1  0  0  0  0
 16 17  1  0  0  0  0
 16 26  1  0  0  0  0
 19 20  1  0  0  0  0
 19 26  1  0  0  0  0
 21 22  1  0  0  0  0
 21 23  1  0  0  0  0
 21 27  1  0  0  0  0
 24 25  1  0  0  0  0
 26 28  2  0  0  0  0
 27 29  1  0  0  0  0
 29 30  1  0  0  0  0
 29 31  1  0  0  0  0
 29 32  2  0  0  0  0
 30 33  1  0  0  0  0
 33 34  1  0  0  0  0
 33 35  2  0  0  0  0
 33 36  1  0  0  0  0
 36 37  1  0  0  0  0
 37 38  1  0  0  0  0
 37 39  1  0  0  0  0
 37 56  1  0  0  0  0
 39 40  1  0  0  0  0
 39 41  1  0  0  0  0
 39 47  1  0  0  0  0
 41 42  1  0  0  0  0
 43 44  1  0  0  0  0
 43 45  1  0  0  0  0
 43 47  1  0  0  0  0
 43 49  1  0  0  0  0
 45 46  1  0  0  0  0
 47 48  1  0  0  0  0
 47 57  1  0  0  0  0
 49 50  1  0  0  0  0
 49 51  1  0  0  0  0
 49 56  1  0  0  0  0
 51 52  1  0  0  0  0
 51 53  1  0  0  0  0
 51 54  1  0  0  0  0
 54 55  1  0  0  0  0
 57 58  1  0  0  0  0
M  BCL ATM C_TeTeTeTe H_S N_TrTrTrPi2 O_Te2Te2TeTe C_TeTeTeTe H_S C_TrTrTrPi C_TrTrTrPi H_S C_TeTeTeTe H_S C_TeTeTeTe H_S O_Te2Te2TeTe H_S N_TrTrTrPi2 H_S O_Tr2Tr2TrPi C_TrTrTrPi H_S C_TeTeTeTe H_S H_S O_Te2Te2TeTe H_S C_TrTrTrPi O_Tr2TrTrPi2 O_Tr2Tr2TrPi P_TeTeTeTePi O_Tr2TrTrPi2 O_Te2Te2TeTe O_Tr2Tr2TrPi P_TeTeTeTePi O_Te2Te2TeTe O_Tr2Tr2TrPi O_Tr2TrTrPi2 C_TeTeTeTe H_S C_TeTeTeTe H_S O_Te2Te2TeTe H_S C_TeTeTeTe H_S O_Te2Te2TeTe H_S C_TeTeTeTe H_S C_TeTeTeTe H_S C_TeTeTeTe H_S H_S O_Te2Te2TeTe H_S O_Te2Te2TeTe O_Te2Te2TeTe H_S
M  BCL BND NonConjugatedSingleBond NonConjugatedSingleBond NonConjugatedSingleBondInRing NonConjugatedSingleBondInRing ConjugatedSingleBondInRing ConjugatedSingleBondInRing NonConjugatedSingleBondInRing NonConjugatedSingleBond NonConjugatedSingleBondInRing NonConjugatedSingleBond ConjugatedSingleBondInRing ConjugatedDoubleBond NonConjugatedSingleBond ConjugatedDoubleBondInRing NonConjugatedSingleBond NonConjugatedSingleBondInRing NonConjugatedSingleBond NonConjugatedSingleBond NonConjugatedSingleBond NonConjugatedSingleBond NonConjugatedSingleBond ConjugatedSingleBondInRing NonConjugatedSingleBond ConjugatedSingleBondInRing NonConjugatedSingleBond NonConjugatedSingleBond NonConjugatedSingleBond NonConjugatedSingleBond ConjugatedDoubleBond ConjugatedSingleBond ConjugatedSingleBond ConjugatedSingleBond ConjugatedDoubleBond ConjugatedSingleBond ConjugatedSingleBond ConjugatedDoubleBond ConjugatedSingleBond NonConjugatedSingleBond NonConjugatedSingleBond NonConjugatedSingleBondInRing NonConjugatedSingleBondInRing NonConjugatedSingleBond NonConjugatedSingleBond NonConjugatedSingleBondInRing NonConjugatedSingleBond NonConjugatedSingleBond NonConjugatedSingleBond NonConjugatedSingleBondInRing NonConjugatedSingleBondInRing NonConjugatedSingleBond NonConjugatedSingleBond NonConjugatedSingleBond NonConjugatedSingleBond NonConjugatedSingleBond NonConjugatedSingleBondInRing NonConjugatedSingleBond NonConjugatedSingleBond NonConjugatedSingleBond NonConjugatedSingleBond NonConjugatedSingleBond
M  BCL CHI   1   S   5   S  10   S  12   R  29   S  33   R  37   S  39   R  43   R  47   R  49   S
M  BCL DBI - Z - - -
M  END
> <ConfClashScore>
0.000369617 

> <ConfOneFourInteractionScore>
-0.954758 

> <ConfScore>
0.262717 

> <ConfScorePBest>
0.00624046 

> <ConfTolerance>
2.31895 

$$$$
ChEBI.****
  PyMOL2.5          3D                             0

 58 60  0  0  0  0  0  0  0  0999 V2000
   12.2685   -7.2961    0.8612 C   0  0  0  1  0  0  0  0  0  0  0  0
   11.7399   -7.9263    0.1768 H   0  0  0  1  0  0  0  0  0  0  0  0
   12.2088   -7.8751    2.2045 N   0  0  0  1  0  0  0  0  0  0  0  0
   13.5951   -7.1655    0.4588 O   0  0  0  1  0  0  0  0  0  0  0  0
   11.6440   -5.8872    0.8679 C   0  0  0  1  0  0  0  0  0  0  0  0
   10.6033   -5.9228    0.6220 H   0  0  0  1  0  0  0  0  0  0  0  0
   11.0686   -7.6913    2.9642 C   0  0  0  1  0  0  0  0  0  0  0  0
   13.3162   -8.6040    2.6853 C   0  0  0  1  0  0  0  0  0  0  0  0
   14.1556   -8.7187    2.0822 H   0  0  0  1  0  0  0  0  0  0  0  0
   13.8096   -5.8788   -0.1746 C   0  0  0  1  0  0  0  0  0  0  0  0
   14.5043   -5.2992    0.3967 H   0  0  0  1  0  0  0  0  0  0  0  0
   12.4496   -5.1718   -0.2244 C   0  0  0  1  0  0  0  0  0  0  0  0
   11.9889   -5.2930   -1.1825 H   0  0  0  1  0  0  0  0  0  0  0  0
   11.8128   -5.2519    2.1359 O   0  0  0  1  0  0  0  0  0  0  0  0
   12.6166   -5.5734    2.5510 H   0  0  0  1  0  0  0  0  0  0  0  0
   11.0937   -8.2425    4.2115 N   0  0  0  1  0  0  0  0  0  0  0  0
   10.2941   -8.1179    4.7643 H   0  0  0  1  0  0  0  0  0  0  0  0
   10.1020   -7.0756    2.5458 O   0  0  0  1  0  0  0  0  0  0  0  0
   13.3015   -9.1567    3.9217 C   0  0  0  1  0  0  0  0  0  0  0  0
   14.1130   -9.7141    4.2569 H   0  0  0  1  0  0  0  0  0  0  0  0
   14.3390   -6.0701   -1.5578 C   0  0  0  1  0  0  0  0  0  0  0  0
   14.8502   -5.1862   -1.8778 H   0  0  0  1  0  0  0  0  0  0  0  0
   13.5338   -6.2803   -2.2303 H   0  0  0  1  0  0  0  0  0  0  0  0
   12.5842   -3.7846    0.0662 O   0  0  0  1  0  0  0  0  0  0  0  0
   13.4812   -3.6036    0.3566 H   0  0  0  1  0  0  0  0  0  0  0  0
   12.1388   -8.9632    4.7780 C   0  0  0  1  0  0  0  0  0  0  0  0
   15.2586   -7.1868   -1.5257 O   0  0  0  1  0  0  0  0  0  0  0  0
   12.0859   -9.4037    5.9145 O   0  0  0  1  0  0  0  0  0  0  0  0
   16.7654   -7.0032   -1.9406 P   0  0  0  1  0  0  0  0  0  0  0  0
   17.4336   -8.4553   -2.0674 O   0  0  0  1  0  0  0  0  0  0  0  0
   16.8368   -6.4259   -3.3452 O   0  0  0  0  0  0  0  0  0  0  0  0
   17.4095   -6.1459   -0.8998 O   0  0  0  1  0  0  0  0  0  0  0  0
   18.9787   -8.8983   -2.0269 P   0  0  0  1  0  0  0  0  0  0  0  0
   19.5532   -8.9519   -3.3956 O   0  0  0  0  0  0  0  0  0  0  0  0
   19.6408   -8.0895   -0.9645 O   0  0  0  1  0  0  0  0  0  0  0  0
   18.7855  -10.3628   -1.4946 O   0  0  0  1  0  0  0  0  0  0  0  0
   18.1096  -11.3682   -2.2244 C   0  0  0  1  0  0  0  0  0  0  0  0
   17.0926  -11.4250   -1.8966 H   0  0  0  1  0  0  0  0  0  0  0  0
   18.7943  -12.7075   -2.0094 C   0  0  0  1  0  0  0  0  0  0  0  0
   18.6190  -13.0240   -1.0024 H   0  0  0  1  0  0  0  0  0  0  0  0
   20.1974  -12.5426   -2.2199 O   0  0  0  1  0  0  0  0  0  0  0  0
   20.6031  -12.1989   -1.4206 H   0  0  0  1  0  0  0  0  0  0  0  0
   18.1279  -13.3537   -4.3799 C   0  0  0  1  0  0  0  0  0  0  0  0
   19.0726  -13.4187   -4.8780 H   0  0  0  1  0  0  0  0  0  0  0  0
   17.1888  -14.2156   -5.0243 O   0  0  0  1  0  0  0  0  0  0  0  0
   17.6374  -14.7318   -5.6980 H   0  0  0  1  0  0  0  0  0  0  0  0
   18.2891  -13.7731   -2.9440 C   0  0  0  1  0  0  0  0  0  0  0  0
   18.9790  -14.5905   -2.9151 H   0  0  0  1  0  0  0  0  0  0  0  0
   17.6427  -11.9778   -4.4362 C   0  0  0  1  0  0  0  0  0  0  0  0
   16.5947  -12.0144   -4.2234 H   0  0  0  1  0  0  0  0  0  0  0  0
   17.8520  -11.5059   -5.8488 C   0  0  0  1  0  0  0  0  0  0  0  0
   17.5094  -12.2663   -6.5190 H   0  0  0  1  0  0  0  0  0  0  0  0
   18.8974  -11.3382   -6.0033 H   0  0  0  1  0  0  0  0  0  0  0  0
   17.1506  -10.3016   -6.1284 O   0  0  0  1  0  0  0  0  0  0  0  0
   16.6050  -10.0661   -5.3744 H   0  0  0  1  0  0  0  0  0  0  0  0
   18.1521  -11.0555   -3.6536 O   0  0  0  1  0  0  0  0  0  0  0  0
   17.0147  -14.2077   -2.4673 O   0  0  0  1  0  0  0  0  0  0  0  0
   16.9388  -14.0109   -1.5308 H   0  0  0  1  0  0  0  0  0  0  0  0
  1  2  1  0  0  0  0
  1  3  1  0  0  0  0
  1  4  1  0  0  0  0
  1  5  1  0  0  0  0
  3  7  1  0  0  0  0
  3  8  1  0  0  0  0
  4 10  1  0  0  0  0
  5  6  1  0  0  0  0
  5 12  1  0  0  0  0
  5 14  1  0  0  0  0
  7 16  1  0  0  0  0
  7 18  2  0  0  0  0
  8  9  1  0  0  0  0
  8 19  2  0  0  0  0
 10 11  1  0  0  0  0
 10 12  1  0  0  0  0
 10 21  1  0  0  0  0
 12 13  1  0  0  0  0
 12 24  1  0  0  0  0
 14 15  1  0  0  0  0
 16 17  1  0  0  0  0
 16 26  1  0  0  0  0
 19 20  1  0  0  0  0
 19 26  1  0  0  0  0
 21 22  1  0  0  0  0
 21 23  1  0  0  0  0
 21 27  1  0  0  0  0
 24 25  1  0  0  0  0
 26 28  2  0  0  0  0
 27 29  1  0  0  0  0
 29 30  1  0  0  0  0
 29 31  1  0  0  0  0
 29 32  2  0  0  0  0
 30 33  1  0  0  0  0
 33 34  1  0  0  0  0
 33 35  2  0  0  0  0
 33 36  1  0  0  0  0
 36 37  1  0  0  0  0
 37 38  1  0  0  0  0
 37 39  1  0  0  0  0
 37 56  1  0  0  0  0
 39 40  1  0  0  0  0
 39 41  1  0  0  0  0
 39 47  1  0  0  0  0
 41 42  1  0  0  0  0
 43 44  1  0  0  0  0
 43 45  1  0  0  0  0
 43 47  1  0  0  0  0
 43 49  1  0  0  0  0
 45 46  1  0  0  0  0
 47 48  1  0  0  0  0
 47 57  1  0  0  0  0
 49 50  1  0  0  0  0
 49 51  1  0  0  0  0
 49 56  1  0  0  0  0
 51 52  1  0  0  0  0
 51 53  1  0  0  0  0
 51 54  1  0  0  0  0
 54 55  1  0  0  0  0
 57 58  1  0  0  0  0
M  BCL ATM C_TeTeTeTe H_S N_TrTrTrPi2 O_Te2Te2TeTe C_TeTeTeTe H_S C_TrTrTrPi C_TrTrTrPi H_S C_TeTeTeTe H_S C_TeTeTeTe H_S O_Te2Te2TeTe H_S N_TrTrTrPi2 H_S O_Tr2Tr2TrPi C_TrTrTrPi H_S C_TeTeTeTe H_S H_S O_Te2Te2TeTe H_S C_TrTrTrPi O_Tr2TrTrPi2 O_Tr2Tr2TrPi P_TeTeTeTePi O_Tr2TrTrPi2 O_Te2Te2TeTe O_Tr2Tr2TrPi P_TeTeTeTePi O_Te2Te2TeTe O_Tr2Tr2TrPi O_Tr2TrTrPi2 C_TeTeTeTe H_S C_TeTeTeTe H_S O_Te2Te2TeTe H_S C_TeTeTeTe H_S O_Te2Te2TeTe H_S C_TeTeTeTe H_S C_TeTeTeTe H_S C_TeTeTeTe H_S H_S O_Te2Te2TeTe H_S O_Te2Te2TeTe O_Te2Te2TeTe H_S
M  BCL BND NonConjugatedSingleBond NonConjugatedSingleBond NonConjugatedSingleBondInRing NonConjugatedSingleBondInRing ConjugatedSingleBondInRing ConjugatedSingleBondInRing NonConjugatedSingleBondInRing NonConjugatedSingleBond NonConjugatedSingleBondInRing NonConjugatedSingleBond ConjugatedSingleBondInRing ConjugatedDoubleBond NonConjugatedSingleBond ConjugatedDoubleBondInRing NonConjugatedSingleBond NonConjugatedSingleBondInRing NonConjugatedSingleBond NonConjugatedSingleBond NonConjugatedSingleBond NonConjugatedSingleBond NonConjugatedSingleBond ConjugatedSingleBondInRing NonConjugatedSingleBond ConjugatedSingleBondInRing NonConjugatedSingleBond NonConjugatedSingleBond NonConjugatedSingleBond NonConjugatedSingleBond ConjugatedDoubleBond ConjugatedSingleBond ConjugatedSingleBond ConjugatedSingleBond ConjugatedDoubleBond ConjugatedSingleBond ConjugatedSingleBond ConjugatedDoubleBond ConjugatedSingleBond NonConjugatedSingleBond NonConjugatedSingleBond NonConjugatedSingleBondInRing NonConjugatedSingleBondInRing NonConjugatedSingleBond NonConjugatedSingleBond NonConjugatedSingleBondInRing NonConjugatedSingleBond NonConjugatedSingleBond NonConjugatedSingleBond NonConjugatedSingleBondInRing NonConjugatedSingleBondInRing NonConjugatedSingleBond NonConjugatedSingleBond NonConjugatedSingleBond NonConjugatedSingleBond NonConjugatedSingleBond NonConjugatedSingleBondInRing NonConjugatedSingleBond NonConjugatedSingleBond NonConjugatedSingleBond NonConjugatedSingleBond NonConjugatedSingleBond
M  BCL CHI   1   S   5   S  10   S  12   R  29   S  33   R  37   S  39   R  43   R  47   R  49   S
M  BCL DBI - Z - - -
M  END
> <ConfClashScore>
0 

> <ConfOneFourInteractionScore>
-0.962869 

> <ConfScore>
0.277387 

> <ConfScorePBest>
0.00613746 

> <ConfTolerance>
2.09956 

$$$$
ChEBI.****
  PyMOL2.5          3D                             0

 58 60  0  0  0  0  0  0  0  0999 V2000
   23.5808   -6.5956   -8.6131 C   0  0  0  1  0  0  0  0  0  0  0  0
   22.5866   -6.7025   -8.9939 H   0  0  0  1  0  0  0  0  0  0  0  0
   24.2495   -5.4591   -9.2845 N   0  0  0  1  0  0  0  0  0  0  0  0
   23.5635   -6.3587   -7.2411 O   0  0  0  1  0  0  0  0  0  0  0  0
   24.3460   -7.9125   -8.8478 C   0  0  0  1  0  0  0  0  0  0  0  0
   23.9652   -8.4360   -9.6998 H   0  0  0  1  0  0  0  0  0  0  0  0
   23.6076   -4.8242  -10.3198 C   0  0  0  1  0  0  0  0  0  0  0  0
   25.4897   -5.0703   -8.8563 C   0  0  0  1  0  0  0  0  0  0  0  0
   25.9399   -5.6098   -8.0895 H   0  0  0  1  0  0  0  0  0  0  0  0
   23.8938   -7.5683   -6.5125 C   0  0  0  1  0  0  0  0  0  0  0  0
   24.8031   -7.4310   -5.9655 H   0  0  0  1  0  0  0  0  0  0  0  0
   24.0672   -8.6834   -7.5509 C   0  0  0  1  0  0  0  0  0  0  0  0
   23.1762   -9.2696   -7.6369 H   0  0  0  1  0  0  0  0  0  0  0  0
   25.7441   -7.6758   -9.0192 O   0  0  0  1  0  0  0  0  0  0  0  0
   26.0337   -8.0557   -9.8519 H   0  0  0  1  0  0  0  0  0  0  0  0
   24.2855   -3.7506  -10.8833 N   0  0  0  1  0  0  0  0  0  0  0  0
   23.8552   -3.2785  -11.6265 H   0  0  0  1  0  0  0  0  0  0  0  0
   22.5114   -5.1808  -10.7193 O   0  0  0  1  0  0  0  0  0  0  0  0
   26.1557   -4.0233   -9.3792 C   0  0  0  1  0  0  0  0  0  0  0  0
   27.0884   -3.7454   -9.0125 H   0  0  0  1  0  0  0  0  0  0  0  0
   22.7909   -7.9148   -5.5672 C   0  0  0  1  0  0  0  0  0  0  0  0
   21.9418   -8.2706   -6.1126 H   0  0  0  1  0  0  0  0  0  0  0  0
   22.5140   -7.0519   -4.9983 H   0  0  0  1  0  0  0  0  0  0  0  0
   25.1619   -9.5290   -7.2142 O   0  0  0  1  0  0  0  0  0  0  0  0
   25.9507   -8.9968   -7.0869 H   0  0  0  1  0  0  0  0  0  0  0  0
   25.5380   -3.2979  -10.4634 C   0  0  0  1  0  0  0  0  0  0  0  0
   23.2779   -8.9497   -4.6856 O   0  0  0  1  0  0  0  0  0  0  0  0
   26.0819   -2.3390  -10.9858 O   0  0  0  1  0  0  0  0  0  0  0  0
   22.3292  -10.0302   -4.0045 P   0  0  0  1  0  0  0  0  0  0  0  0
   21.2797   -9.1267   -3.1683 O   0  0  0  1  0  0  0  0  0  0  0  0
   21.5339  -10.6278   -5.1022 O   0  0  0  0  0  0  0  0  0  0  0  0
   23.1028  -10.9085   -3.1073 O   0  0  0  1  0  0  0  0  0  0  0  0
   20.2678   -9.6881   -2.0763 P   0  0  0  1  0  0  0  0  0  0  0  0
   21.0825  -10.4989   -1.1402 O   0  0  0  0  0  0  0  0  0  0  0  0
   19.4198   -8.6034   -1.5480 O   0  0  0  1  0  0  0  0  0  0  0  0
   19.4106  -10.7324   -2.8830 O   0  0  0  1  0  0  0  0  0  0  0  0
   18.1365  -11.2823   -2.4547 C   0  0  0  1  0  0  0  0  0  0  0  0
   17.7537  -10.7040   -1.6398 H   0  0  0  1  0  0  0  0  0  0  0  0
   18.3409  -12.7230   -1.9951 C   0  0  0  1  0  0  0  0  0  0  0  0
   17.4217  -13.1040   -1.6017 H   0  0  0  1  0  0  0  0  0  0  0  0
   19.3451  -12.7587   -0.9799 O   0  0  0  1  0  0  0  0  0  0  0  0
   18.9270  -12.7707   -0.1158 H   0  0  0  1  0  0  0  0  0  0  0  0
   17.8410  -13.4293   -4.3518 C   0  0  0  1  0  0  0  0  0  0  0  0
   18.2456  -13.9435   -5.1985 H   0  0  0  1  0  0  0  0  0  0  0  0
   16.5709  -13.9897   -4.0157 O   0  0  0  1  0  0  0  0  0  0  0  0
   16.0847  -13.3733   -3.4633 H   0  0  0  1  0  0  0  0  0  0  0  0
   18.7829  -13.5852   -3.1755 C   0  0  0  1  0  0  0  0  0  0  0  0
   19.7666  -13.2889   -3.4748 H   0  0  0  1  0  0  0  0  0  0  0  0
   17.6639  -11.9493   -4.6975 C   0  0  0  1  0  0  0  0  0  0  0  0
   16.9386  -11.8512   -5.4780 H   0  0  0  1  0  0  0  0  0  0  0  0
   18.9786  -11.3839   -5.1599 C   0  0  0  1  0  0  0  0  0  0  0  0
   19.1364  -11.6707   -6.1786 H   0  0  0  1  0  0  0  0  0  0  0  0
   19.7595  -11.7877   -4.5500 H   0  0  0  1  0  0  0  0  0  0  0  0
   19.0199   -9.9656   -5.0738 O   0  0  0  1  0  0  0  0  0  0  0  0
   19.7630   -9.6351   -5.5838 H   0  0  0  1  0  0  0  0  0  0  0  0
   17.2168  -11.2296   -3.5379 O   0  0  0  1  0  0  0  0  0  0  0  0
   18.7999  -14.9556   -2.7709 O   0  0  0  1  0  0  0  0  0  0  0  0
   19.4663  -15.4299   -3.2735 H   0  0  0  1  0  0  0  0  0  0  0  0
  1  2  1  0  0  0  0
  1  3  1  0  0  0  0
  1  4  1  0  0  0  0
  1  5  1  0  0  0  0
  3  7  1  0  0  0  0
  3  8  1  0  0  0  0
  4 10  1  0  0  0  0
  5  6  1  0  0  0  0
  5 12  1  0  0  0  0
  5 14  1  0  0  0  0
  7 16  1  0  0  0  0
  7 18  2  0  0  0  0
  8  9  1  0  0  0  0
  8 19  2  0  0  0  0
 10 11  1  0  0  0  0
 10 12  1  0  0  0  0
 10 21  1  0  0  0  0
 12 13  1  0  0  0  0
 12 24  1  0  0  0  0
 14 15  1  0  0  0  0
 16 17  1  0  0  0  0
 16 26  1  0  0  0  0
 19 20  1  0  0  0  0
 19 26  1  0  0  0  0
 21 22  1  0  0  0  0
 21 23  1  0  0  0  0
 21 27  1  0  0  0  0
 24 25  1  0  0  0  0
 26 28  2  0  0  0  0
 27 29  1  0  0  0  0
 29 30  1  0  0  0  0
 29 31  1  0  0  0  0
 29 32  2  0  0  0  0
 30 33  1  0  0  0  0
 33 34  1  0  0  0  0
 33 35  2  0  0  0  0
 33 36  1  0  0  0  0
 36 37  1  0  0  0  0
 37 38  1  0  0  0  0
 37 39  1  0  0  0  0
 37 56  1  0  0  0  0
 39 40  1  0  0  0  0
 39 41  1  0  0  0  0
 39 47  1  0  0  0  0
 41 42  1  0  0  0  0
 43 44  1  0  0  0  0
 43 45  1  0  0  0  0
 43 47  1  0  0  0  0
 43 49  1  0  0  0  0
 45 46  1  0  0  0  0
 47 48  1  0  0  0  0
 47 57  1  0  0  0  0
 49 50  1  0  0  0  0
 49 51  1  0  0  0  0
 49 56  1  0  0  0  0
 51 52  1  0  0  0  0
 51 53  1  0  0  0  0
 51 54  1  0  0  0  0
 54 55  1  0  0  0  0
 57 58  1  0  0  0  0
M  BCL ATM C_TeTeTeTe H_S N_TrTrTrPi2 O_Te2Te2TeTe C_TeTeTeTe H_S C_TrTrTrPi C_TrTrTrPi H_S C_TeTeTeTe H_S C_TeTeTeTe H_S O_Te2Te2TeTe H_S N_TrTrTrPi2 H_S O_Tr2Tr2TrPi C_TrTrTrPi H_S C_TeTeTeTe H_S H_S O_Te2Te2TeTe H_S C_TrTrTrPi O_Tr2TrTrPi2 O_Tr2Tr2TrPi P_TeTeTeTePi O_Tr2TrTrPi2 O_Te2Te2TeTe O_Tr2Tr2TrPi P_TeTeTeTePi O_Te2Te2TeTe O_Tr2Tr2TrPi O_Tr2TrTrPi2 C_TeTeTeTe H_S C_TeTeTeTe H_S O_Te2Te2TeTe H_S C_TeTeTeTe H_S O_Te2Te2TeTe H_S C_TeTeTeTe H_S C_TeTeTeTe H_S C_TeTeTeTe H_S H_S O_Te2Te2TeTe H_S O_Te2Te2TeTe O_Te2Te2TeTe H_S
M  BCL BND NonConjugatedSingleBond NonConjugatedSingleBond NonConjugatedSingleBondInRing NonConjugatedSingleBondInRing ConjugatedSingleBondInRing ConjugatedSingleBondInRing NonConjugatedSingleBondInRing NonConjugatedSingleBond NonConjugatedSingleBondInRing NonConjugatedSingleBond ConjugatedSingleBondInRing ConjugatedDoubleBond NonConjugatedSingleBond ConjugatedDoubleBondInRing NonConjugatedSingleBond NonConjugatedSingleBondInRing NonConjugatedSingleBond NonConjugatedSingleBond NonConjugatedSingleBond NonConjugatedSingleBond NonConjugatedSingleBond ConjugatedSingleBondInRing NonConjugatedSingleBond ConjugatedSingleBondInRing NonConjugatedSingleBond NonConjugatedSingleBond NonConjugatedSingleBond NonConjugatedSingleBond ConjugatedDoubleBond ConjugatedSingleBond ConjugatedSingleBond ConjugatedSingleBond ConjugatedDoubleBond ConjugatedSingleBond ConjugatedSingleBond ConjugatedDoubleBond ConjugatedSingleBond NonConjugatedSingleBond NonConjugatedSingleBond NonConjugatedSingleBondInRing NonConjugatedSingleBondInRing NonConjugatedSingleBond NonConjugatedSingleBond NonConjugatedSingleBondInRing NonConjugatedSingleBond NonConjugatedSingleBond NonConjugatedSingleBond NonConjugatedSingleBondInRing NonConjugatedSingleBondInRing NonConjugatedSingleBond NonConjugatedSingleBond NonConjugatedSingleBond NonConjugatedSingleBond NonConjugatedSingleBond NonConjugatedSingleBondInRing NonConjugatedSingleBond NonConjugatedSingleBond NonConjugatedSingleBond NonConjugatedSingleBond NonConjugatedSingleBond
M  BCL CHI   1   S   5   S  10   S  12   R  29   S  33   R  37   S  39   R  43   R  47   R  49   S
M  BCL DBI - Z - - -
M  END
> <ConfClashScore>
0.00280409 

> <ConfOneFourInteractionScore>
-0.972212 

> <ConfScore>
0.280216 

> <ConfScorePBest>
0.00603446 

> <ConfTolerance>
1.63974 

$$$$
ChEBI.****
  PyMOL2.5          3D                             0

 58 60  0  0  0  0  0  0  0  0999 V2000
   18.6445   -6.4314    0.7227 C   0  0  0  1  0  0  0  0  0  0  0  0
   18.9433   -6.9040    1.6350 H   0  0  0  1  0  0  0  0  0  0  0  0
   19.6836   -6.6145   -0.2832 N   0  0  0  1  0  0  0  0  0  0  0  0
   17.4466   -6.9807    0.2734 O   0  0  0  1  0  0  0  0  0  0  0  0
   18.4050   -4.9281    0.9634 C   0  0  0  1  0  0  0  0  0  0  0  0
   19.0099   -4.5626    1.7668 H   0  0  0  1  0  0  0  0  0  0  0  0
   20.9957   -6.5195    0.1105 C   0  0  0  1  0  0  0  0  0  0  0  0
   19.2921   -6.8789   -1.6050 C   0  0  0  1  0  0  0  0  0  0  0  0
   18.2894   -6.9611   -1.8683 H   0  0  0  1  0  0  0  0  0  0  0  0
   16.3395   -6.0889    0.5600 C   0  0  0  1  0  0  0  0  0  0  0  0
   15.8891   -5.7574   -0.3522 H   0  0  0  1  0  0  0  0  0  0  0  0
   16.9152   -4.8929    1.3281 C   0  0  0  1  0  0  0  0  0  0  0  0
   16.7753   -5.0105    2.3824 H   0  0  0  1  0  0  0  0  0  0  0  0
   18.6682   -4.1652   -0.2179 O   0  0  0  1  0  0  0  0  0  0  0  0
   18.8936   -3.2644    0.0259 H   0  0  0  1  0  0  0  0  0  0  0  0
   21.9470   -6.6652   -0.8625 N   0  0  0  1  0  0  0  0  0  0  0  0
   22.8902   -6.6049   -0.6034 H   0  0  0  1  0  0  0  0  0  0  0  0
   21.2994   -6.3147    1.2741 O   0  0  0  1  0  0  0  0  0  0  0  0
   20.2945   -7.0246   -2.5373 C   0  0  0  1  0  0  0  0  0  0  0  0
   20.0312   -7.2389   -3.5204 H   0  0  0  1  0  0  0  0  0  0  0  0
   15.3457   -6.7719    1.3718 C   0  0  0  1  0  0  0  0  0  0  0  0
   14.5580   -7.1124    0.7326 H   0  0  0  1  0  0  0  0  0  0  0  0
   14.9521   -6.0782    2.0851 H   0  0  0  1  0  0  0  0  0  0  0  0
   16.3119   -3.6709    0.9004 O   0  0  0  1  0  0  0  0  0  0  0  0
   15.3862   -3.6645    1.1546 H   0  0  0  1  0  0  0  0  0  0  0  0
   21.6376   -6.8986   -2.2249 C   0  0  0  1  0  0  0  0  0  0  0  0
   15.8870   -7.9093    2.0838 O   0  0  0  1  0  0  0  0  0  0  0  0
   22.5070   -6.9840   -3.0765 O   0  0  0  1  0  0  0  0  0  0  0  0
   15.9204   -9.3354    1.4196 P   0  0  0  1  0  0  0  0  0  0  0  0
   17.1340   -9.2655    0.3739 O   0  0  0  1  0  0  0  0  0  0  0  0
   16.3009  -10.2538    2.5382 O   0  0  0  0  0  0  0  0  0  0  0  0
   14.7258   -9.6134    0.5954 O   0  0  0  1  0  0  0  0  0  0  0  0
   18.4331  -10.2659    0.1734 P   0  0  0  1  0  0  0  0  0  0  0  0
   19.5298   -9.4795    0.8740 O   0  0  0  0  0  0  0  0  0  0  0  0
   18.0799  -11.5586    0.8652 O   0  0  0  1  0  0  0  0  0  0  0  0
   18.6985  -10.3998   -1.3684 O   0  0  0  1  0  0  0  0  0  0  0  0
   18.0802  -11.3686   -2.1717 C   0  0  0  1  0  0  0  0  0  0  0  0
   17.0424  -11.4328   -1.9191 H   0  0  0  1  0  0  0  0  0  0  0  0
   18.7462  -12.7170   -1.9550 C   0  0  0  1  0  0  0  0  0  0  0  0
   18.4993  -13.0672   -0.9745 H   0  0  0  1  0  0  0  0  0  0  0  0
   20.1609  -12.5502   -2.0595 O   0  0  0  1  0  0  0  0  0  0  0  0
   20.3602  -11.6394   -2.2880 H   0  0  0  1  0  0  0  0  0  0  0  0
   18.2492  -13.2789   -4.3877 C   0  0  0  1  0  0  0  0  0  0  0  0
   19.2269  -13.3304   -4.8194 H   0  0  0  1  0  0  0  0  0  0  0  0
   17.3566  -14.1152   -5.1270 O   0  0  0  1  0  0  0  0  0  0  0  0
   17.1086  -14.8720   -4.5909 H   0  0  0  1  0  0  0  0  0  0  0  0
   18.3073  -13.7480   -2.9593 C   0  0  0  1  0  0  0  0  0  0  0  0
   18.9923  -14.5685   -2.9097 H   0  0  0  1  0  0  0  0  0  0  0  0
   17.7710  -11.9001   -4.4308 C   0  0  0  1  0  0  0  0  0  0  0  0
   16.7105  -11.9401   -4.2944 H   0  0  0  1  0  0  0  0  0  0  0  0
   18.0804  -11.3816   -5.8057 C   0  0  0  1  0  0  0  0  0  0  0  0
   17.7135  -10.3809   -5.8992 H   0  0  0  1  0  0  0  0  0  0  0  0
   17.6076  -12.0051   -6.5355 H   0  0  0  1  0  0  0  0  0  0  0  0
   19.4863  -11.3911   -6.0157 O   0  0  0  1  0  0  0  0  0  0  0  0
   19.6874  -10.9743   -6.8567 H   0  0  0  1  0  0  0  0  0  0  0  0
   18.2246  -11.0072   -3.5826 O   0  0  0  1  0  0  0  0  0  0  0  0
   17.0017  -14.1939   -2.5896 O   0  0  0  1  0  0  0  0  0  0  0  0
   17.0747  -14.9735   -2.0341 H   0  0  0  1  0  0  0  0  0  0  0  0
  1  2  1  0  0  0  0
  1  3  1  0  0  0  0
  1  4  1  0  0  0  0
  1  5  1  0  0  0  0
  3  7  1  0  0  0  0
  3  8  1  0  0  0  0
  4 10  1  0  0  0  0
  5  6  1  0  0  0  0
  5 12  1  0  0  0  0
  5 14  1  0  0  0  0
  7 16  1  0  0  0  0
  7 18  2  0  0  0  0
  8  9  1  0  0  0  0
  8 19  2  0  0  0  0
 10 11  1  0  0  0  0
 10 12  1  0  0  0  0
 10 21  1  0  0  0  0
 12 13  1  0  0  0  0
 12 24  1  0  0  0  0
 14 15  1  0  0  0  0
 16 17  1  0  0  0  0
 16 26  1  0  0  0  0
 19 20  1  0  0  0  0
 19 26  1  0  0  0  0
 21 22  1  0  0  0  0
 21 23  1  0  0  0  0
 21 27  1  0  0  0  0
 24 25  1  0  0  0  0
 26 28  2  0  0  0  0
 27 29  1  0  0  0  0
 29 30  1  0  0  0  0
 29 31  1  0  0  0  0
 29 32  2  0  0  0  0
 30 33  1  0  0  0  0
 33 34  1  0  0  0  0
 33 35  2  0  0  0  0
 33 36  1  0  0  0  0
 36 37  1  0  0  0  0
 37 38  1  0  0  0  0
 37 39  1  0  0  0  0
 37 56  1  0  0  0  0
 39 40  1  0  0  0  0
 39 41  1  0  0  0  0
 39 47  1  0  0  0  0
 41 42  1  0  0  0  0
 43 44  1  0  0  0  0
 43 45  1  0  0  0  0
 43 47  1  0  0  0  0
 43 49  1  0  0  0  0
 45 46  1  0  0  0  0
 47 48  1  0  0  0  0
 47 57  1  0  0  0  0
 49 50  1  0  0  0  0
 49 51  1  0  0  0  0
 49 56  1  0  0  0  0
 51 52  1  0  0  0  0
 51 53  1  0  0  0  0
 51 54  1  0  0  0  0
 54 55  1  0  0  0  0
 57 58  1  0  0  0  0
M  BCL ATM C_TeTeTeTe H_S N_TrTrTrPi2 O_Te2Te2TeTe C_TeTeTeTe H_S C_TrTrTrPi C_TrTrTrPi H_S C_TeTeTeTe H_S C_TeTeTeTe H_S O_Te2Te2TeTe H_S N_TrTrTrPi2 H_S O_Tr2Tr2TrPi C_TrTrTrPi H_S C_TeTeTeTe H_S H_S O_Te2Te2TeTe H_S C_TrTrTrPi O_Tr2TrTrPi2 O_Tr2Tr2TrPi P_TeTeTeTePi O_Tr2TrTrPi2 O_Te2Te2TeTe O_Tr2Tr2TrPi P_TeTeTeTePi O_Te2Te2TeTe O_Tr2Tr2TrPi O_Tr2TrTrPi2 C_TeTeTeTe H_S C_TeTeTeTe H_S O_Te2Te2TeTe H_S C_TeTeTeTe H_S O_Te2Te2TeTe H_S C_TeTeTeTe H_S C_TeTeTeTe H_S C_TeTeTeTe H_S H_S O_Te2Te2TeTe H_S O_Te2Te2TeTe O_Te2Te2TeTe H_S
M  BCL BND NonConjugatedSingleBond NonConjugatedSingleBond NonConjugatedSingleBondInRing NonConjugatedSingleBondInRing ConjugatedSingleBondInRing ConjugatedSingleBondInRing NonConjugatedSingleBondInRing NonConjugatedSingleBond NonConjugatedSingleBondInRing NonConjugatedSingleBond ConjugatedSingleBondInRing ConjugatedDoubleBond NonConjugatedSingleBond ConjugatedDoubleBondInRing NonConjugatedSingleBond NonConjugatedSingleBondInRing NonConjugatedSingleBond NonConjugatedSingleBond NonConjugatedSingleBond NonConjugatedSingleBond NonConjugatedSingleBond ConjugatedSingleBondInRing NonConjugatedSingleBond ConjugatedSingleBondInRing NonConjugatedSingleBond NonConjugatedSingleBond NonConjugatedSingleBond NonConjugatedSingleBond ConjugatedDoubleBond ConjugatedSingleBond ConjugatedSingleBond ConjugatedSingleBond ConjugatedDoubleBond ConjugatedSingleBond ConjugatedSingleBond ConjugatedDoubleBond ConjugatedSingleBond NonConjugatedSingleBond NonConjugatedSingleBond NonConjugatedSingleBondInRing NonConjugatedSingleBondInRing NonConjugatedSingleBond NonConjugatedSingleBond NonConjugatedSingleBondInRing NonConjugatedSingleBond NonConjugatedSingleBond NonConjugatedSingleBond NonConjugatedSingleBondInRing NonConjugatedSingleBondInRing NonConjugatedSingleBond NonConjugatedSingleBond NonConjugatedSingleBond NonConjugatedSingleBond NonConjugatedSingleBond NonConjugatedSingleBondInRing NonConjugatedSingleBond NonConjugatedSingleBond NonConjugatedSingleBond NonConjugatedSingleBond NonConjugatedSingleBond
M  BCL CHI   1   S   5   S  10   S  12   R  29   S  33   R  37   S  39   R  43   R  47   R  49   S
M  BCL DBI - Z - - -
M  END
> <ConfClashScore>
0 

> <ConfOneFourInteractionScore>
-0.982234 

> <ConfScore>
0.284688 

> <ConfScorePBest>
0.00593146 

> <ConfTolerance>
2.38763 

$$$$
ChEBI.****
  PyMOL2.5          3D                             0

 58 60  0  0  0  0  0  0  0  0999 V2000
   19.0386   -5.8479    4.0690 C   0  0  0  1  0  0  0  0  0  0  0  0
   20.0831   -5.6334    3.9797 H   0  0  0  1  0  0  0  0  0  0  0  0
   18.2697   -4.6092    3.9149 N   0  0  0  1  0  0  0  0  0  0  0  0
   18.6387   -6.8120    3.0885 O   0  0  0  1  0  0  0  0  0  0  0  0
   18.7410   -6.4959    5.4108 C   0  0  0  1  0  0  0  0  0  0  0  0
   19.3686   -6.1009    6.1822 H   0  0  0  1  0  0  0  0  0  0  0  0
   18.7279   -3.4651    4.5262 C   0  0  0  1  0  0  0  0  0  0  0  0
   17.1068   -4.6347    3.1578 C   0  0  0  1  0  0  0  0  0  0  0  0
   16.7800   -5.5169    2.7145 H   0  0  0  1  0  0  0  0  0  0  0  0
   18.6205   -8.1213    3.6873 C   0  0  0  1  0  0  0  0  0  0  0  0
   17.6317   -8.5285    3.6510 H   0  0  0  1  0  0  0  0  0  0  0  0
   19.0625   -7.9537    5.1280 C   0  0  0  1  0  0  0  0  0  0  0  0
   20.1099   -8.1449    5.2345 H   0  0  0  1  0  0  0  0  0  0  0  0
   17.3678   -6.3266    5.7785 O   0  0  0  1  0  0  0  0  0  0  0  0
   17.2762   -6.4246    6.7291 H   0  0  0  1  0  0  0  0  0  0  0  0
   17.9706   -2.3294    4.3766 N   0  0  0  1  0  0  0  0  0  0  0  0
   18.2844   -1.5058    4.8052 H   0  0  0  1  0  0  0  0  0  0  0  0
   19.7623   -3.4597    5.1730 O   0  0  0  1  0  0  0  0  0  0  0  0
   16.4016   -3.4752    3.0083 C   0  0  0  1  0  0  0  0  0  0  0  0
   15.5575   -3.4750    2.4008 H   0  0  0  1  0  0  0  0  0  0  0  0
   19.5603   -9.0292    2.9645 C   0  0  0  1  0  0  0  0  0  0  0  0
   19.6097   -9.9745    3.4633 H   0  0  0  1  0  0  0  0  0  0  0  0
   20.5362   -8.5917    2.9308 H   0  0  0  1  0  0  0  0  0  0  0  0
   18.3350   -8.8129    5.9882 O   0  0  0  1  0  0  0  0  0  0  0  0
   18.8711   -9.5797    6.2036 H   0  0  0  1  0  0  0  0  0  0  0  0
   16.7792   -2.2793    3.6495 C   0  0  0  1  0  0  0  0  0  0  0  0
   19.0533   -9.2070    1.6209 O   0  0  0  1  0  0  0  0  0  0  0  0
   16.1077   -1.2635    3.5744 O   0  0  0  1  0  0  0  0  0  0  0  0
   20.0609   -9.0246    0.3909 P   0  0  0  1  0  0  0  0  0  0  0  0
   18.9862   -9.0065   -0.8183 O   0  0  0  1  0  0  0  0  0  0  0  0
   20.6928   -7.6825    0.5887 O   0  0  0  0  0  0  0  0  0  0  0  0
   21.0036  -10.1744    0.2511 O   0  0  0  1  0  0  0  0  0  0  0  0
   19.4284   -9.1770   -2.3619 P   0  0  0  1  0  0  0  0  0  0  0  0
   18.5874   -8.3841   -3.3257 O   0  0  0  0  0  0  0  0  0  0  0  0
   20.8542   -8.9680   -2.5269 O   0  0  0  1  0  0  0  0  0  0  0  0
   19.1338  -10.6973   -2.6332 O   0  0  0  1  0  0  0  0  0  0  0  0
   17.9198  -11.4323   -2.3923 C   0  0  0  1  0  0  0  0  0  0  0  0
   17.3750  -10.9707   -1.5955 H   0  0  0  1  0  0  0  0  0  0  0  0
   18.3196  -12.7526   -1.9142 C   0  0  0  1  0  0  0  0  0  0  0  0
   17.4883  -13.2235   -1.4323 H   0  0  0  1  0  0  0  0  0  0  0  0
   19.3949  -12.6157   -0.9841 O   0  0  0  1  0  0  0  0  0  0  0  0
   20.2291  -12.5987   -1.4589 H   0  0  0  1  0  0  0  0  0  0  0  0
   17.9912  -13.4075   -4.3522 C   0  0  0  1  0  0  0  0  0  0  0  0
   18.5466  -13.8395   -5.1582 H   0  0  0  1  0  0  0  0  0  0  0  0
   16.7349  -14.0771   -4.2258 O   0  0  0  1  0  0  0  0  0  0  0  0
   16.0417  -13.5323   -4.6056 H   0  0  0  1  0  0  0  0  0  0  0  0
   18.7676  -13.5956   -3.0771 C   0  0  0  1  0  0  0  0  0  0  0  0
   19.7922  -13.3617   -3.2779 H   0  0  0  1  0  0  0  0  0  0  0  0
   17.7325  -11.9441   -4.6692 C   0  0  0  1  0  0  0  0  0  0  0  0
   17.0314  -11.8666   -5.4738 H   0  0  0  1  0  0  0  0  0  0  0  0
   19.0189  -11.2738   -5.0587 C   0  0  0  1  0  0  0  0  0  0  0  0
   19.3244  -11.6056   -6.0290 H   0  0  0  1  0  0  0  0  0  0  0  0
   19.7820  -11.5053   -4.3454 H   0  0  0  1  0  0  0  0  0  0  0  0
   18.7813   -9.8724   -5.0777 O   0  0  0  1  0  0  0  0  0  0  0  0
   19.5855   -9.4145   -5.3331 H   0  0  0  1  0  0  0  0  0  0  0  0
   17.1844  -11.3054   -3.4719 O   0  0  0  1  0  0  0  0  0  0  0  0
   18.6578  -14.9671   -2.6938 O   0  0  0  1  0  0  0  0  0  0  0  0
   18.3318  -15.0229   -1.7926 H   0  0  0  1  0  0  0  0  0  0  0  0
  1  2  1  0  0  0  0
  1  3  1  0  0  0  0
  1  4  1  0  0  0  0
  1  5  1  0  0  0  0
  3  7  1  0  0  0  0
  3  8  1  0  0  0  0
  4 10  1  0  0  0  0
  5  6  1  0  0  0  0
  5 12  1  0  0  0  0
  5 14  1  0  0  0  0
  7 16  1  0  0  0  0
  7 18  2  0  0  0  0
  8  9  1  0  0  0  0
  8 19  2  0  0  0  0
 10 11  1  0  0  0  0
 10 12  1  0  0  0  0
 10 21  1  0  0  0  0
 12 13  1  0  0  0  0
 12 24  1  0  0  0  0
 14 15  1  0  0  0  0
 16 17  1  0  0  0  0
 16 26  1  0  0  0  0
 19 20  1  0  0  0  0
 19 26  1  0  0  0  0
 21 22  1  0  0  0  0
 21 23  1  0  0  0  0
 21 27  1  0  0  0  0
 24 25  1  0  0  0  0
 26 28  2  0  0  0  0
 27 29  1  0  0  0  0
 29 30  1  0  0  0  0
 29 31  1  0  0  0  0
 29 32  2  0  0  0  0
 30 33  1  0  0  0  0
 33 34  1  0  0  0  0
 33 35  2  0  0  0  0
 33 36  1  0  0  0  0
 36 37  1  0  0  0  0
 37 38  1  0  0  0  0
 37 39  1  0  0  0  0
 37 56  1  0  0  0  0
 39 40  1  0  0  0  0
 39 41  1  0  0  0  0
 39 47  1  0  0  0  0
 41 42  1  0  0  0  0
 43 44  1  0  0  0  0
 43 45  1  0  0  0  0
 43 47  1  0  0  0  0
 43 49  1  0  0  0  0
 45 46  1  0  0  0  0
 47 48  1  0  0  0  0
 47 57  1  0  0  0  0
 49 50  1  0  0  0  0
 49 51  1  0  0  0  0
 49 56  1  0  0  0  0
 51 52  1  0  0  0  0
 51 53  1  0  0  0  0
 51 54  1  0  0  0  0
 54 55  1  0  0  0  0
 57 58  1  0  0  0  0
M  BCL ATM C_TeTeTeTe H_S N_TrTrTrPi2 O_Te2Te2TeTe C_TeTeTeTe H_S C_TrTrTrPi C_TrTrTrPi H_S C_TeTeTeTe H_S C_TeTeTeTe H_S O_Te2Te2TeTe H_S N_TrTrTrPi2 H_S O_Tr2Tr2TrPi C_TrTrTrPi H_S C_TeTeTeTe H_S H_S O_Te2Te2TeTe H_S C_TrTrTrPi O_Tr2TrTrPi2 O_Tr2Tr2TrPi P_TeTeTeTePi O_Tr2TrTrPi2 O_Te2Te2TeTe O_Tr2Tr2TrPi P_TeTeTeTePi O_Te2Te2TeTe O_Tr2Tr2TrPi O_Tr2TrTrPi2 C_TeTeTeTe H_S C_TeTeTeTe H_S O_Te2Te2TeTe H_S C_TeTeTeTe H_S O_Te2Te2TeTe H_S C_TeTeTeTe H_S C_TeTeTeTe H_S C_TeTeTeTe H_S H_S O_Te2Te2TeTe H_S O_Te2Te2TeTe O_Te2Te2TeTe H_S
M  BCL BND NonConjugatedSingleBond NonConjugatedSingleBond NonConjugatedSingleBondInRing NonConjugatedSingleBondInRing ConjugatedSingleBondInRing ConjugatedSingleBondInRing NonConjugatedSingleBondInRing NonConjugatedSingleBond NonConjugatedSingleBondInRing NonConjugatedSingleBond ConjugatedSingleBondInRing ConjugatedDoubleBond NonConjugatedSingleBond ConjugatedDoubleBondInRing NonConjugatedSingleBond NonConjugatedSingleBondInRing NonConjugatedSingleBond NonConjugatedSingleBond NonConjugatedSingleBond NonConjugatedSingleBond NonConjugatedSingleBond ConjugatedSingleBondInRing NonConjugatedSingleBond ConjugatedSingleBondInRing NonConjugatedSingleBond NonConjugatedSingleBond NonConjugatedSingleBond NonConjugatedSingleBond ConjugatedDoubleBond ConjugatedSingleBond ConjugatedSingleBond ConjugatedSingleBond ConjugatedDoubleBond ConjugatedSingleBond ConjugatedSingleBond ConjugatedDoubleBond ConjugatedSingleBond NonConjugatedSingleBond NonConjugatedSingleBond NonConjugatedSingleBondInRing NonConjugatedSingleBondInRing NonConjugatedSingleBond NonConjugatedSingleBond NonConjugatedSingleBondInRing NonConjugatedSingleBond NonConjugatedSingleBond NonConjugatedSingleBond NonConjugatedSingleBondInRing NonConjugatedSingleBondInRing NonConjugatedSingleBond NonConjugatedSingleBond NonConjugatedSingleBond NonConjugatedSingleBond NonConjugatedSingleBond NonConjugatedSingleBondInRing NonConjugatedSingleBond NonConjugatedSingleBond NonConjugatedSingleBond NonConjugatedSingleBond NonConjugatedSingleBond
M  BCL CHI   1   S   5   S  10   S  12   R  29   S  33   R  37   S  39   R  43   R  47   R  49   S
M  BCL DBI - Z - - -
M  END
> <ConfClashScore>
0.00127966 

> <ConfOneFourInteractionScore>
-0.976351 

> <ConfScore>
0.291474 

> <ConfScorePBest>
0.00582846 

> <ConfTolerance>
1.9743 

$$$$
ChEBI.****
  PyMOL2.5          3D                             0

 58 60  0  0  0  0  0  0  0  0999 V2000
   18.7167   -4.6169    0.4922 C   0  0  0  1  0  0  0  0  0  0  0  0
   18.4231   -3.6505    0.1389 H   0  0  0  1  0  0  0  0  0  0  0  0
   18.1279   -4.8545    1.8137 N   0  0  0  1  0  0  0  0  0  0  0  0
   18.2922   -5.5978   -0.4002 O   0  0  0  1  0  0  0  0  0  0  0  0
   20.2531   -4.7006    0.5785 C   0  0  0  1  0  0  0  0  0  0  0  0
   20.6848   -3.7379    0.7563 H   0  0  0  1  0  0  0  0  0  0  0  0
   18.7205   -4.3143    2.9225 C   0  0  0  1  0  0  0  0  0  0  0  0
   16.9852   -5.6189    1.9206 C   0  0  0  1  0  0  0  0  0  0  0  0
   16.5687   -6.0015    1.0479 H   0  0  0  1  0  0  0  0  0  0  0  0
   19.4022   -6.0640   -1.2086 C   0  0  0  1  0  0  0  0  0  0  0  0
   19.5866   -7.1004   -1.0168 H   0  0  0  1  0  0  0  0  0  0  0  0
   20.6262   -5.2293   -0.8125 C   0  0  0  1  0  0  0  0  0  0  0  0
   20.7807   -4.4244   -1.5003 H   0  0  0  1  0  0  0  0  0  0  0  0
   20.6657   -5.6050    1.6042 O   0  0  0  1  0  0  0  0  0  0  0  0
   21.1852   -5.1320    2.2585 H   0  0  0  1  0  0  0  0  0  0  0  0
   18.0830   -4.5925    4.1120 N   0  0  0  1  0  0  0  0  0  0  0  0
   18.4819   -4.2111    4.9217 H   0  0  0  1  0  0  0  0  0  0  0  0
   19.7346   -3.6388    2.8626 O   0  0  0  1  0  0  0  0  0  0  0  0
   16.3782   -5.8984    3.0869 C   0  0  0  1  0  0  0  0  0  0  0  0
   15.5256   -6.4932    3.1190 H   0  0  0  1  0  0  0  0  0  0  0  0
   19.1011   -5.8740   -2.6406 C   0  0  0  1  0  0  0  0  0  0  0  0
   19.9827   -5.5362   -3.1442 H   0  0  0  1  0  0  0  0  0  0  0  0
   18.3280   -5.1414   -2.7439 H   0  0  0  1  0  0  0  0  0  0  0  0
   21.7977   -6.0364   -0.7547 O   0  0  0  1  0  0  0  0  0  0  0  0
   22.3601   -5.8394   -1.5073 H   0  0  0  1  0  0  0  0  0  0  0  0
   16.9434   -5.3505    4.2852 C   0  0  0  1  0  0  0  0  0  0  0  0
   18.6608   -7.1182   -3.2336 O   0  0  0  1  0  0  0  0  0  0  0  0
   16.4497   -5.5416    5.3844 O   0  0  0  1  0  0  0  0  0  0  0  0
   17.2310   -7.7618   -2.8430 P   0  0  0  1  0  0  0  0  0  0  0  0
   17.3992   -8.1260   -1.3101 O   0  0  0  1  0  0  0  0  0  0  0  0
   16.1791   -6.7252   -2.9364 O   0  0  0  0  0  0  0  0  0  0  0  0
   17.1018   -8.9946   -3.6648 O   0  0  0  1  0  0  0  0  0  0  0  0
   18.0052   -9.3208   -0.4054 P   0  0  0  1  0  0  0  0  0  0  0  0
   18.9577   -8.6664    0.5230 O   0  0  0  0  0  0  0  0  0  0  0  0
   16.9537  -10.1663    0.1292 O   0  0  0  1  0  0  0  0  0  0  0  0
   18.7460  -10.2513   -1.4305 O   0  0  0  1  0  0  0  0  0  0  0  0
   18.0884  -11.2658   -2.1738 C   0  0  0  1  0  0  0  0  0  0  0  0
   17.0514  -11.2860   -1.9107 H   0  0  0  1  0  0  0  0  0  0  0  0
   18.7210  -12.6144   -1.8738 C   0  0  0  1  0  0  0  0  0  0  0  0
   18.4731  -12.8934   -0.8710 H   0  0  0  1  0  0  0  0  0  0  0  0
   20.1386  -12.4922   -1.9981 O   0  0  0  1  0  0  0  0  0  0  0  0
   20.3536  -12.1098   -2.8520 H   0  0  0  1  0  0  0  0  0  0  0  0
   18.1897  -13.3201   -4.2613 C   0  0  0  1  0  0  0  0  0  0  0  0
   19.1621  -13.4254   -4.6951 H   0  0  0  1  0  0  0  0  0  0  0  0
   17.2702  -14.1784   -4.9382 O   0  0  0  1  0  0  0  0  0  0  0  0
   17.7295  -14.9654   -5.2404 H   0  0  0  1  0  0  0  0  0  0  0  0
   18.2473  -13.6966   -2.8058 C   0  0  0  1  0  0  0  0  0  0  0  0
   18.9112  -14.5299   -2.7072 H   0  0  0  1  0  0  0  0  0  0  0  0
   17.7470  -11.9349   -4.3912 C   0  0  0  1  0  0  0  0  0  0  0  0
   16.6870  -11.9379   -4.2456 H   0  0  0  1  0  0  0  0  0  0  0  0
   18.0584  -11.5154   -5.7990 C   0  0  0  1  0  0  0  0  0  0  0  0
   17.6174  -10.5596   -5.9911 H   0  0  0  1  0  0  0  0  0  0  0  0
   17.6595  -12.2364   -6.4815 H   0  0  0  1  0  0  0  0  0  0  0  0
   19.4667  -11.4293   -5.9724 O   0  0  0  1  0  0  0  0  0  0  0  0
   19.6921  -11.6516   -6.8787 H   0  0  0  1  0  0  0  0  0  0  0  0
   18.2306  -11.0010   -3.6061 O   0  0  0  1  0  0  0  0  0  0  0  0
   16.9337  -14.0829   -2.3993 O   0  0  0  1  0  0  0  0  0  0  0  0
   16.9527  -14.9837   -2.0679 H   0  0  0  1  0  0  0  0  0  0  0  0
  1  2  1  0  0  0  0
  1  3  1  0  0  0  0
  1  4  1  0  0  0  0
  1  5  1  0  0  0  0
  3  7  1  0  0  0  0
  3  8  1  0  0  0  0
  4 10  1  0  0  0  0
  5  6  1  0  0  0  0
  5 12  1  0  0  0  0
  5 14  1  0  0  0  0
  7 16  1  0  0  0  0
  7 18  2  0  0  0  0
  8  9  1  0  0  0  0
  8 19  2  0  0  0  0
 10 11  1  0  0  0  0
 10 12  1  0  0  0  0
 10 21  1  0  0  0  0
 12 13  1  0  0  0  0
 12 24  1  0  0  0  0
 14 15  1  0  0  0  0
 16 17  1  0  0  0  0
 16 26  1  0  0  0  0
 19 20  1  0  0  0  0
 19 26  1  0  0  0  0
 21 22  1  0  0  0  0
 21 23  1  0  0  0  0
 21 27  1  0  0  0  0
 24 25  1  0  0  0  0
 26 28  2  0  0  0  0
 27 29  1  0  0  0  0
 29 30  1  0  0  0  0
 29 31  1  0  0  0  0
 29 32  2  0  0  0  0
 30 33  1  0  0  0  0
 33 34  1  0  0  0  0
 33 35  2  0  0  0  0
 33 36  1  0  0  0  0
 36 37  1  0  0  0  0
 37 38  1  0  0  0  0
 37 39  1  0  0  0  0
 37 56  1  0  0  0  0
 39 40  1  0  0  0  0
 39 41  1  0  0  0  0
 39 47  1  0  0  0  0
 41 42  1  0  0  0  0
 43 44  1  0  0  0  0
 43 45  1  0  0  0  0
 43 47  1  0  0  0  0
 43 49  1  0  0  0  0
 45 46  1  0  0  0  0
 47 48  1  0  0  0  0
 47 57  1  0  0  0  0
 49 50  1  0  0  0  0
 49 51  1  0  0  0  0
 49 56  1  0  0  0  0
 51 52  1  0  0  0  0
 51 53  1  0  0  0  0
 51 54  1  0  0  0  0
 54 55  1  0  0  0  0
 57 58  1  0  0  0  0
M  BCL ATM C_TeTeTeTe H_S N_TrTrTrPi2 O_Te2Te2TeTe C_TeTeTeTe H_S C_TrTrTrPi C_TrTrTrPi H_S C_TeTeTeTe H_S C_TeTeTeTe H_S O_Te2Te2TeTe H_S N_TrTrTrPi2 H_S O_Tr2Tr2TrPi C_TrTrTrPi H_S C_TeTeTeTe H_S H_S O_Te2Te2TeTe H_S C_TrTrTrPi O_Tr2TrTrPi2 O_Tr2Tr2TrPi P_TeTeTeTePi O_Tr2TrTrPi2 O_Te2Te2TeTe O_Tr2Tr2TrPi P_TeTeTeTePi O_Te2Te2TeTe O_Tr2Tr2TrPi O_Tr2TrTrPi2 C_TeTeTeTe H_S C_TeTeTeTe H_S O_Te2Te2TeTe H_S C_TeTeTeTe H_S O_Te2Te2TeTe H_S C_TeTeTeTe H_S C_TeTeTeTe H_S C_TeTeTeTe H_S H_S O_Te2Te2TeTe H_S O_Te2Te2TeTe O_Te2Te2TeTe H_S
M  BCL BND NonConjugatedSingleBond NonConjugatedSingleBond NonConjugatedSingleBondInRing NonConjugatedSingleBondInRing ConjugatedSingleBondInRing ConjugatedSingleBondInRing NonConjugatedSingleBondInRing NonConjugatedSingleBond NonConjugatedSingleBondInRing NonConjugatedSingleBond ConjugatedSingleBondInRing ConjugatedDoubleBond NonConjugatedSingleBond ConjugatedDoubleBondInRing NonConjugatedSingleBond NonConjugatedSingleBondInRing NonConjugatedSingleBond NonConjugatedSingleBond NonConjugatedSingleBond NonConjugatedSingleBond NonConjugatedSingleBond ConjugatedSingleBondInRing NonConjugatedSingleBond ConjugatedSingleBondInRing NonConjugatedSingleBond NonConjugatedSingleBond NonConjugatedSingleBond NonConjugatedSingleBond ConjugatedDoubleBond ConjugatedSingleBond ConjugatedSingleBond ConjugatedSingleBond ConjugatedDoubleBond ConjugatedSingleBond ConjugatedSingleBond ConjugatedDoubleBond ConjugatedSingleBond NonConjugatedSingleBond NonConjugatedSingleBond NonConjugatedSingleBondInRing NonConjugatedSingleBondInRing NonConjugatedSingleBond NonConjugatedSingleBond NonConjugatedSingleBondInRing NonConjugatedSingleBond NonConjugatedSingleBond NonConjugatedSingleBond NonConjugatedSingleBondInRing NonConjugatedSingleBondInRing NonConjugatedSingleBond NonConjugatedSingleBond NonConjugatedSingleBond NonConjugatedSingleBond NonConjugatedSingleBond NonConjugatedSingleBondInRing NonConjugatedSingleBond NonConjugatedSingleBond NonConjugatedSingleBond NonConjugatedSingleBond NonConjugatedSingleBond
M  BCL CHI   1   S   5   S  10   S  12   R  29   S  33   R  37   S  39   R  43   R  47   R  49   S
M  BCL DBI - Z - - -
M  END
> <ConfClashScore>
0 

> <ConfOneFourInteractionScore>
-0.97091 

> <ConfScore>
0.344208 

> <ConfScorePBest>
0.00572546 

> <ConfTolerance>
2.35017 

$$$$
ChEBI.****
  PyMOL2.5          3D                             0

 58 60  0  0  0  0  0  0  0  0999 V2000
   26.8642  -11.9840   -1.2806 C   0  0  0  1  0  0  0  0  0  0  0  0
   26.5470  -12.9995   -1.1661 H   0  0  0  1  0  0  0  0  0  0  0  0
   28.2654  -11.8595   -0.8677 N   0  0  0  1  0  0  0  0  0  0  0  0
   26.6952  -11.5469   -2.6566 O   0  0  0  1  0  0  0  0  0  0  0  0
   25.9767  -11.0474   -0.4620 C   0  0  0  1  0  0  0  0  0  0  0  0
   24.9756  -11.4190   -0.3933 H   0  0  0  1  0  0  0  0  0  0  0  0
   28.6953  -12.5418    0.2520 C   0  0  0  1  0  0  0  0  0  0  0  0
   29.1013  -11.0745   -1.6008 C   0  0  0  1  0  0  0  0  0  0  0  0
   28.7240  -10.5877   -2.4388 H   0  0  0  1  0  0  0  0  0  0  0  0
   26.0123  -10.3117   -2.7005 C   0  0  0  1  0  0  0  0  0  0  0  0
   26.5098   -9.6330   -3.3613 H   0  0  0  1  0  0  0  0  0  0  0  0
   26.0388   -9.7822   -1.2782 C   0  0  0  1  0  0  0  0  0  0  0  0
   25.1949   -9.1538   -1.0832 H   0  0  0  1  0  0  0  0  0  0  0  0
   26.5019  -10.8470    0.8511 O   0  0  0  1  0  0  0  0  0  0  0  0
   26.4599   -9.9142    1.0740 H   0  0  0  1  0  0  0  0  0  0  0  0
   30.0317  -12.3378    0.5701 N   0  0  0  1  0  0  0  0  0  0  0  0
   30.3768  -12.7905    1.3678 H   0  0  0  1  0  0  0  0  0  0  0  0
   27.9626  -13.2640    0.9077 O   0  0  0  1  0  0  0  0  0  0  0  0
   30.4009  -10.9042   -1.2812 C   0  0  0  1  0  0  0  0  0  0  0  0
   31.0217  -10.3052   -1.8621 H   0  0  0  1  0  0  0  0  0  0  0  0
   24.6044  -10.5101   -3.1570 C   0  0  0  1  0  0  0  0  0  0  0  0
   24.5956  -10.8832   -4.1599 H   0  0  0  1  0  0  0  0  0  0  0  0
   24.0740   -9.5817   -3.1167 H   0  0  0  1  0  0  0  0  0  0  0  0
   27.2424   -9.0582   -1.0186 O   0  0  0  1  0  0  0  0  0  0  0  0
   27.1449   -8.5551   -0.2067 H   0  0  0  1  0  0  0  0  0  0  0  0
   30.8957  -11.5689   -0.1259 C   0  0  0  1  0  0  0  0  0  0  0  0
   23.9856  -11.4702   -2.2687 O   0  0  0  1  0  0  0  0  0  0  0  0
   32.0585  -11.4489    0.2235 O   0  0  0  1  0  0  0  0  0  0  0  0
   22.3502  -11.7028   -2.2799 P   0  0  0  1  0  0  0  0  0  0  0  0
   21.6550  -10.2741   -2.0965 O   0  0  0  1  0  0  0  0  0  0  0  0
   22.1357  -12.2658   -3.6760 O   0  0  0  0  0  0  0  0  0  0  0  0
   22.0578  -12.6905   -1.1783 O   0  0  0  1  0  0  0  0  0  0  0  0
   20.1390   -9.7575   -1.8548 P   0  0  0  1  0  0  0  0  0  0  0  0
   19.6907  -10.1243   -0.4926 O   0  0  0  0  0  0  0  0  0  0  0  0
   20.1599   -8.3521   -2.3148 O   0  0  0  1  0  0  0  0  0  0  0  0
   19.3143  -10.6583   -2.8470 O   0  0  0  1  0  0  0  0  0  0  0  0
   18.1327  -11.3386   -2.4111 C   0  0  0  1  0  0  0  0  0  0  0  0
   17.7155  -10.8262   -1.5695 H   0  0  0  1  0  0  0  0  0  0  0  0
   18.5595  -12.6498   -1.9313 C   0  0  0  1  0  0  0  0  0  0  0  0
   17.7906  -13.0726   -1.3190 H   0  0  0  1  0  0  0  0  0  0  0  0
   19.7562  -12.5089   -1.1643 O   0  0  0  1  0  0  0  0  0  0  0  0
   19.5327  -12.2586   -0.2649 H   0  0  0  1  0  0  0  0  0  0  0  0
   17.8805  -13.3963   -4.2686 C   0  0  0  1  0  0  0  0  0  0  0  0
   18.3078  -13.8799   -5.1220 H   0  0  0  1  0  0  0  0  0  0  0  0
   16.6372  -14.0182   -3.9409 O   0  0  0  1  0  0  0  0  0  0  0  0
   16.2405  -14.3804   -4.7365 H   0  0  0  1  0  0  0  0  0  0  0  0
   18.8203  -13.5554   -3.1042 C   0  0  0  1  0  0  0  0  0  0  0  0
   19.8132  -13.3639   -3.4538 H   0  0  0  1  0  0  0  0  0  0  0  0
   17.6195  -11.9400   -4.6148 C   0  0  0  1  0  0  0  0  0  0  0  0
   16.8164  -11.8737   -5.3187 H   0  0  0  1  0  0  0  0  0  0  0  0
   18.8571  -11.3290   -5.2072 C   0  0  0  1  0  0  0  0  0  0  0  0
   19.0165  -11.7109   -6.1939 H   0  0  0  1  0  0  0  0  0  0  0  0
   19.7051  -11.5555   -4.5952 H   0  0  0  1  0  0  0  0  0  0  0  0
   18.6567   -9.9226   -5.2577 O   0  0  0  1  0  0  0  0  0  0  0  0
   17.7222   -9.7360   -5.3731 H   0  0  0  1  0  0  0  0  0  0  0  0
   17.2590  -11.2336   -3.3847 O   0  0  0  1  0  0  0  0  0  0  0  0
   18.7281  -14.9052   -2.6463 O   0  0  0  1  0  0  0  0  0  0  0  0
   17.9102  -15.2958   -2.9626 H   0  0  0  1  0  0  0  0  0  0  0  0
  1  2  1  0  0  0  0
  1  3  1  0  0  0  0
  1  4  1  0  0  0  0
  1  5  1  0  0  0  0
  3  7  1  0  0  0  0
  3  8  1  0  0  0  0
  4 10  1  0  0  0  0
  5  6  1  0  0  0  0
  5 12  1  0  0  0  0
  5 14  1  0  0  0  0
  7 16  1  0  0  0  0
  7 18  2  0  0  0  0
  8  9  1  0  0  0  0
  8 19  2  0  0  0  0
 10 11  1  0  0  0  0
 10 12  1  0  0  0  0
 10 21  1  0  0  0  0
 12 13  1  0  0  0  0
 12 24  1  0  0  0  0
 14 15  1  0  0  0  0
 16 17  1  0  0  0  0
 16 26  1  0  0  0  0
 19 20  1  0  0  0  0
 19 26  1  0  0  0  0
 21 22  1  0  0  0  0
 21 23  1  0  0  0  0
 21 27  1  0  0  0  0
 24 25  1  0  0  0  0
 26 28  2  0  0  0  0
 27 29  1  0  0  0  0
 29 30  1  0  0  0  0
 29 31  1  0  0  0  0
 29 32  2  0  0  0  0
 30 33  1  0  0  0  0
 33 34  1  0  0  0  0
 33 35  2  0  0  0  0
 33 36  1  0  0  0  0
 36 37  1  0  0  0  0
 37 38  1  0  0  0  0
 37 39  1  0  0  0  0
 37 56  1  0  0  0  0
 39 40  1  0  0  0  0
 39 41  1  0  0  0  0
 39 47  1  0  0  0  0
 41 42  1  0  0  0  0
 43 44  1  0  0  0  0
 43 45  1  0  0  0  0
 43 47  1  0  0  0  0
 43 49  1  0  0  0  0
 45 46  1  0  0  0  0
 47 48  1  0  0  0  0
 47 57  1  0  0  0  0
 49 50  1  0  0  0  0
 49 51  1  0  0  0  0
 49 56  1  0  0  0  0
 51 52  1  0  0  0  0
 51 53  1  0  0  0  0
 51 54  1  0  0  0  0
 54 55  1  0  0  0  0
 57 58  1  0  0  0  0
M  BCL ATM C_TeTeTeTe H_S N_TrTrTrPi2 O_Te2Te2TeTe C_TeTeTeTe H_S C_TrTrTrPi C_TrTrTrPi H_S C_TeTeTeTe H_S C_TeTeTeTe H_S O_Te2Te2TeTe H_S N_TrTrTrPi2 H_S O_Tr2Tr2TrPi C_TrTrTrPi H_S C_TeTeTeTe H_S H_S O_Te2Te2TeTe H_S C_TrTrTrPi O_Tr2TrTrPi2 O_Tr2Tr2TrPi P_TeTeTeTePi O_Tr2TrTrPi2 O_Te2Te2TeTe O_Tr2Tr2TrPi P_TeTeTeTePi O_Te2Te2TeTe O_Tr2Tr2TrPi O_Tr2TrTrPi2 C_TeTeTeTe H_S C_TeTeTeTe H_S O_Te2Te2TeTe H_S C_TeTeTeTe H_S O_Te2Te2TeTe H_S C_TeTeTeTe H_S C_TeTeTeTe H_S C_TeTeTeTe H_S H_S O_Te2Te2TeTe H_S O_Te2Te2TeTe O_Te2Te2TeTe H_S
M  BCL BND NonConjugatedSingleBond NonConjugatedSingleBond NonConjugatedSingleBondInRing NonConjugatedSingleBondInRing ConjugatedSingleBondInRing ConjugatedSingleBondInRing NonConjugatedSingleBondInRing NonConjugatedSingleBond NonConjugatedSingleBondInRing NonConjugatedSingleBond ConjugatedSingleBondInRing ConjugatedDoubleBond NonConjugatedSingleBond ConjugatedDoubleBondInRing NonConjugatedSingleBond NonConjugatedSingleBondInRing NonConjugatedSingleBond NonConjugatedSingleBond NonConjugatedSingleBond NonConjugatedSingleBond NonConjugatedSingleBond ConjugatedSingleBondInRing NonConjugatedSingleBond ConjugatedSingleBondInRing NonConjugatedSingleBond NonConjugatedSingleBond NonConjugatedSingleBond NonConjugatedSingleBond ConjugatedDoubleBond ConjugatedSingleBond ConjugatedSingleBond ConjugatedSingleBond ConjugatedDoubleBond ConjugatedSingleBond ConjugatedSingleBond ConjugatedDoubleBond ConjugatedSingleBond NonConjugatedSingleBond NonConjugatedSingleBond NonConjugatedSingleBondInRing NonConjugatedSingleBondInRing NonConjugatedSingleBond NonConjugatedSingleBond NonConjugatedSingleBondInRing NonConjugatedSingleBond NonConjugatedSingleBond NonConjugatedSingleBond NonConjugatedSingleBondInRing NonConjugatedSingleBondInRing NonConjugatedSingleBond NonConjugatedSingleBond NonConjugatedSingleBond NonConjugatedSingleBond NonConjugatedSingleBond NonConjugatedSingleBondInRing NonConjugatedSingleBond NonConjugatedSingleBond NonConjugatedSingleBond NonConjugatedSingleBond NonConjugatedSingleBond
M  BCL CHI   1   S   5   S  10   S  12   R  29   S  33   R  37   S  39   R  43   R  47   R  49   S
M  BCL DBI - Z - - -
M  END
> <ConfClashScore>
0.00127863 

> <ConfOneFourInteractionScore>
-0.986145 

> <ConfScore>
0.349782 

> <ConfScorePBest>
0.00562246 

> <ConfTolerance>
1.66307 

$$$$
ChEBI.****
  PyMOL2.5          3D                             0

 58 60  0  0  0  0  0  0  0  0999 V2000
   26.0396   -7.1526   -6.2643 C   0  0  0  1  0  0  0  0  0  0  0  0
   26.9789   -7.4602   -5.8546 H   0  0  0  1  0  0  0  0  0  0  0  0
   26.2283   -6.7239   -7.6528 N   0  0  0  1  0  0  0  0  0  0  0  0
   25.1030   -8.2072   -6.1967 O   0  0  0  1  0  0  0  0  0  0  0  0
   25.4441   -6.0269   -5.4382 C   0  0  0  1  0  0  0  0  0  0  0  0
   25.6895   -6.1352   -4.4024 H   0  0  0  1  0  0  0  0  0  0  0  0
   27.3794   -6.0535   -8.0058 C   0  0  0  1  0  0  0  0  0  0  0  0
   25.2546   -6.9964   -8.5839 C   0  0  0  1  0  0  0  0  0  0  0  0
   24.4010   -7.5045   -8.2761 H   0  0  0  1  0  0  0  0  0  0  0  0
   23.8361   -7.7270   -5.6698 C   0  0  0  1  0  0  0  0  0  0  0  0
   23.0259   -8.0363   -6.2965 H   0  0  0  1  0  0  0  0  0  0  0  0
   23.9656   -6.2044   -5.6698 C   0  0  0  1  0  0  0  0  0  0  0  0
   23.3913   -5.7637   -4.8819 H   0  0  0  1  0  0  0  0  0  0  0  0
   25.8907   -4.7524   -5.9033 O   0  0  0  1  0  0  0  0  0  0  0  0
   26.6816   -4.4954   -5.4237 H   0  0  0  1  0  0  0  0  0  0  0  0
   27.4759   -5.6880   -9.3266 N   0  0  0  1  0  0  0  0  0  0  0  0
   28.2880   -5.2102   -9.5961 H   0  0  0  1  0  0  0  0  0  0  0  0
   28.2569   -5.8007   -7.1969 O   0  0  0  1  0  0  0  0  0  0  0  0
   25.3576   -6.6315   -9.8879 C   0  0  0  1  0  0  0  0  0  0  0  0
   24.6008   -6.8544  -10.5655 H   0  0  0  1  0  0  0  0  0  0  0  0
   23.6164   -8.2361   -4.2832 C   0  0  0  1  0  0  0  0  0  0  0  0
   22.7450   -7.7804   -3.8615 H   0  0  0  1  0  0  0  0  0  0  0  0
   24.4670   -8.0124   -3.6738 H   0  0  0  1  0  0  0  0  0  0  0  0
   23.5649   -5.6489   -6.9179 O   0  0  0  1  0  0  0  0  0  0  0  0
   22.6101   -5.7034   -7.0011 H   0  0  0  1  0  0  0  0  0  0  0  0
   26.5404   -5.9291  -10.3077 C   0  0  0  1  0  0  0  0  0  0  0  0
   23.4336   -9.6587   -4.3648 O   0  0  0  1  0  0  0  0  0  0  0  0
   26.7045   -5.5690  -11.4617 O   0  0  0  1  0  0  0  0  0  0  0  0
   22.9425  -10.6057   -3.1564 P   0  0  0  1  0  0  0  0  0  0  0  0
   21.6575   -9.7417   -2.7814 O   0  0  0  1  0  0  0  0  0  0  0  0
   22.5640  -11.9272   -3.6899 O   0  0  0  0  0  0  0  0  0  0  0  0
   23.9164  -10.5312   -2.0531 O   0  0  0  1  0  0  0  0  0  0  0  0
   20.3008   -9.8299   -1.9729 P   0  0  0  1  0  0  0  0  0  0  0  0
   20.6322  -10.6841   -0.7896 O   0  0  0  0  0  0  0  0  0  0  0  0
   19.6567   -8.5175   -1.7899 O   0  0  0  1  0  0  0  0  0  0  0  0
   19.3279  -10.6284   -2.9172 O   0  0  0  1  0  0  0  0  0  0  0  0
   18.1154  -11.1484   -2.4298 C   0  0  0  1  0  0  0  0  0  0  0  0
   17.7652  -10.5406   -1.6219 H   0  0  0  1  0  0  0  0  0  0  0  0
   18.3267  -12.5754   -1.9448 C   0  0  0  1  0  0  0  0  0  0  0  0
   17.4054  -12.9682   -1.5684 H   0  0  0  1  0  0  0  0  0  0  0  0
   19.3101  -12.5907   -0.9090 O   0  0  0  1  0  0  0  0  0  0  0  0
   19.5744  -13.4963   -0.7314 H   0  0  0  1  0  0  0  0  0  0  0  0
   17.8468  -13.3179   -4.2790 C   0  0  0  1  0  0  0  0  0  0  0  0
   18.2654  -13.8261   -5.1224 H   0  0  0  1  0  0  0  0  0  0  0  0
   16.6012  -13.9225   -3.9281 O   0  0  0  1  0  0  0  0  0  0  0  0
   16.7471  -14.8401   -3.6866 H   0  0  0  1  0  0  0  0  0  0  0  0
   18.8004  -13.4152   -3.1089 C   0  0  0  1  0  0  0  0  0  0  0  0
   19.7660  -13.0718   -3.4165 H   0  0  0  1  0  0  0  0  0  0  0  0
   17.6172  -11.8511   -4.6328 C   0  0  0  1  0  0  0  0  0  0  0  0
   16.8877  -11.7793   -5.4123 H   0  0  0  1  0  0  0  0  0  0  0  0
   18.9067  -11.2358   -5.0948 C   0  0  0  1  0  0  0  0  0  0  0  0
   19.7235  -11.6856   -4.5700 H   0  0  0  1  0  0  0  0  0  0  0  0
   18.8903  -10.1845   -4.8962 H   0  0  0  1  0  0  0  0  0  0  0  0
   19.0665  -11.4505   -6.4908 O   0  0  0  1  0  0  0  0  0  0  0  0
   18.5487  -12.2131   -6.7591 H   0  0  0  1  0  0  0  0  0  0  0  0
   17.1476  -11.1659   -3.4715 O   0  0  0  1  0  0  0  0  0  0  0  0
   18.8895  -14.7788   -2.6932 O   0  0  0  1  0  0  0  0  0  0  0  0
   18.3906  -15.3318   -3.2990 H   0  0  0  1  0  0  0  0  0  0  0  0
  1  2  1  0  0  0  0
  1  3  1  0  0  0  0
  1  4  1  0  0  0  0
  1  5  1  0  0  0  0
  3  7  1  0  0  0  0
  3  8  1  0  0  0  0
  4 10  1  0  0  0  0
  5  6  1  0  0  0  0
  5 12  1  0  0  0  0
  5 14  1  0  0  0  0
  7 16  1  0  0  0  0
  7 18  2  0  0  0  0
  8  9  1  0  0  0  0
  8 19  2  0  0  0  0
 10 11  1  0  0  0  0
 10 12  1  0  0  0  0
 10 21  1  0  0  0  0
 12 13  1  0  0  0  0
 12 24  1  0  0  0  0
 14 15  1  0  0  0  0
 16 17  1  0  0  0  0
 16 26  1  0  0  0  0
 19 20  1  0  0  0  0
 19 26  1  0  0  0  0
 21 22  1  0  0  0  0
 21 23  1  0  0  0  0
 21 27  1  0  0  0  0
 24 25  1  0  0  0  0
 26 28  2  0  0  0  0
 27 29  1  0  0  0  0
 29 30  1  0  0  0  0
 29 31  1  0  0  0  0
 29 32  2  0  0  0  0
 30 33  1  0  0  0  0
 33 34  1  0  0  0  0
 33 35  2  0  0  0  0
 33 36  1  0  0  0  0
 36 37  1  0  0  0  0
 37 38  1  0  0  0  0
 37 39  1  0  0  0  0
 37 56  1  0  0  0  0
 39 40  1  0  0  0  0
 39 41  1  0  0  0  0
 39 47  1  0  0  0  0
 41 42  1  0  0  0  0
 43 44  1  0  0  0  0
 43 45  1  0  0  0  0
 43 47  1  0  0  0  0
 43 49  1  0  0  0  0
 45 46  1  0  0  0  0
 47 48  1  0  0  0  0
 47 57  1  0  0  0  0
 49 50  1  0  0  0  0
 49 51  1  0  0  0  0
 49 56  1  0  0  0  0
 51 52  1  0  0  0  0
 51 53  1  0  0  0  0
 51 54  1  0  0  0  0
 54 55  1  0  0  0  0
 57 58  1  0  0  0  0
M  BCL ATM C_TeTeTeTe H_S N_TrTrTrPi2 O_Te2Te2TeTe C_TeTeTeTe H_S C_TrTrTrPi C_TrTrTrPi H_S C_TeTeTeTe H_S C_TeTeTeTe H_S O_Te2Te2TeTe H_S N_TrTrTrPi2 H_S O_Tr2Tr2TrPi C_TrTrTrPi H_S C_TeTeTeTe H_S H_S O_Te2Te2TeTe H_S C_TrTrTrPi O_Tr2TrTrPi2 O_Tr2Tr2TrPi P_TeTeTeTePi O_Tr2TrTrPi2 O_Te2Te2TeTe O_Tr2Tr2TrPi P_TeTeTeTePi O_Te2Te2TeTe O_Tr2Tr2TrPi O_Tr2TrTrPi2 C_TeTeTeTe H_S C_TeTeTeTe H_S O_Te2Te2TeTe H_S C_TeTeTeTe H_S O_Te2Te2TeTe H_S C_TeTeTeTe H_S C_TeTeTeTe H_S C_TeTeTeTe H_S H_S O_Te2Te2TeTe H_S O_Te2Te2TeTe O_Te2Te2TeTe H_S
M  BCL BND NonConjugatedSingleBond NonConjugatedSingleBond NonConjugatedSingleBondInRing NonConjugatedSingleBondInRing ConjugatedSingleBondInRing ConjugatedSingleBondInRing NonConjugatedSingleBondInRing NonConjugatedSingleBond NonConjugatedSingleBondInRing NonConjugatedSingleBond ConjugatedSingleBondInRing ConjugatedDoubleBond NonConjugatedSingleBond ConjugatedDoubleBondInRing NonConjugatedSingleBond NonConjugatedSingleBondInRing NonConjugatedSingleBond NonConjugatedSingleBond NonConjugatedSingleBond NonConjugatedSingleBond NonConjugatedSingleBond ConjugatedSingleBondInRing NonConjugatedSingleBond ConjugatedSingleBondInRing NonConjugatedSingleBond NonConjugatedSingleBond NonConjugatedSingleBond NonConjugatedSingleBond ConjugatedDoubleBond ConjugatedSingleBond ConjugatedSingleBond ConjugatedSingleBond ConjugatedDoubleBond ConjugatedSingleBond ConjugatedSingleBond ConjugatedDoubleBond ConjugatedSingleBond NonConjugatedSingleBond NonConjugatedSingleBond NonConjugatedSingleBondInRing NonConjugatedSingleBondInRing NonConjugatedSingleBond NonConjugatedSingleBond NonConjugatedSingleBondInRing NonConjugatedSingleBond NonConjugatedSingleBond NonConjugatedSingleBond NonConjugatedSingleBondInRing NonConjugatedSingleBondInRing NonConjugatedSingleBond NonConjugatedSingleBond NonConjugatedSingleBond NonConjugatedSingleBond NonConjugatedSingleBond NonConjugatedSingleBondInRing NonConjugatedSingleBond NonConjugatedSingleBond NonConjugatedSingleBond NonConjugatedSingleBond NonConjugatedSingleBond
M  BCL CHI   1   S   5   S  10   S  12   R  29   S  33   R  37   S  39   R  43   R  47   R  49   S
M  BCL DBI - Z - - -
M  END
> <ConfClashScore>
0.00466347 

> <ConfOneFourInteractionScore>
-0.968473 

> <ConfScore>
0.415536 

> <ConfScorePBest>
0.00551946 

> <ConfTolerance>
1.55321 

$$$$
ChEBI.****
  PyMOL2.5          3D                             0

 58 60  0  0  0  0  0  0  0  0999 V2000
   20.3207   -2.3708   -6.8124 C   0  0  0  1  0  0  0  0  0  0  0  0
   20.6608   -2.7458   -7.7550 H   0  0  0  1  0  0  0  0  0  0  0  0
   20.2341   -0.9060   -6.8699 N   0  0  0  1  0  0  0  0  0  0  0  0
   19.0727   -2.9087   -6.5096 O   0  0  0  1  0  0  0  0  0  0  0  0
   21.2936   -2.7963   -5.6955 C   0  0  0  1  0  0  0  0  0  0  0  0
   22.2868   -2.9219   -6.0731 H   0  0  0  1  0  0  0  0  0  0  0  0
   19.6802   -0.2207   -5.8044 C   0  0  0  1  0  0  0  0  0  0  0  0
   20.7076   -0.2468   -7.9864 C   0  0  0  1  0  0  0  0  0  0  0  0
   21.1006   -0.8115   -8.7663 H   0  0  0  1  0  0  0  0  0  0  0  0
   19.2000   -3.9641   -5.5232 C   0  0  0  1  0  0  0  0  0  0  0  0
   18.6857   -3.6919   -4.6253 H   0  0  0  1  0  0  0  0  0  0  0  0
   20.6977   -4.1350   -5.2410 C   0  0  0  1  0  0  0  0  0  0  0  0
   21.1044   -4.9476   -5.8060 H   0  0  0  1  0  0  0  0  0  0  0  0
   21.3056   -1.8458   -4.6289 O   0  0  0  1  0  0  0  0  0  0  0  0
   21.0525   -2.2792   -3.8105 H   0  0  0  1  0  0  0  0  0  0  0  0
   19.6713    1.1572   -5.9208 N   0  0  0  1  0  0  0  0  0  0  0  0
   19.3048    1.6678   -5.1689 H   0  0  0  1  0  0  0  0  0  0  0  0
   19.2293   -0.7937   -4.8263 O   0  0  0  1  0  0  0  0  0  0  0  0
   20.6845    1.0833   -8.1113 C   0  0  0  1  0  0  0  0  0  0  0  0
   21.0483    1.5391   -8.9724 H   0  0  0  1  0  0  0  0  0  0  0  0
   18.6304   -5.2369   -6.0576 C   0  0  0  1  0  0  0  0  0  0  0  0
   19.1648   -5.5351   -6.9354 H   0  0  0  1  0  0  0  0  0  0  0  0
   17.5966   -5.1010   -6.2978 H   0  0  0  1  0  0  0  0  0  0  0  0
   20.9350   -4.3555   -3.8499 O   0  0  0  1  0  0  0  0  0  0  0  0
   20.7319   -5.2678   -3.6309 H   0  0  0  1  0  0  0  0  0  0  0  0
   20.1411    1.8864   -7.0216 C   0  0  0  1  0  0  0  0  0  0  0  0
   18.7680   -6.2387   -5.0372 O   0  0  0  1  0  0  0  0  0  0  0  0
   20.0987    3.1068   -7.0653 O   0  0  0  1  0  0  0  0  0  0  0  0
   18.8233   -7.8386   -5.2958 P   0  0  0  1  0  0  0  0  0  0  0  0
   18.6937   -8.3416   -3.7718 O   0  0  0  1  0  0  0  0  0  0  0  0
   17.5568   -8.2755   -5.9326 O   0  0  0  0  0  0  0  0  0  0  0  0
   20.1233   -8.2395   -5.8729 O   0  0  0  1  0  0  0  0  0  0  0  0
   19.8500   -9.1312   -2.9587 P   0  0  0  1  0  0  0  0  0  0  0  0
   21.0941   -8.9148   -3.7352 O   0  0  0  0  0  0  0  0  0  0  0  0
   19.8236   -8.8014   -1.5457 O   0  0  0  1  0  0  0  0  0  0  0  0
   19.4006  -10.6312   -2.9984 O   0  0  0  1  0  0  0  0  0  0  0  0
   18.1796  -11.1471   -2.4445 C   0  0  0  1  0  0  0  0  0  0  0  0
   17.8655  -10.5259   -1.6318 H   0  0  0  1  0  0  0  0  0  0  0  0
   18.4012  -12.5687   -1.9484 C   0  0  0  1  0  0  0  0  0  0  0  0
   17.4931  -12.9501   -1.5303 H   0  0  0  1  0  0  0  0  0  0  0  0
   19.4248  -12.5764   -0.9522 O   0  0  0  1  0  0  0  0  0  0  0  0
   19.2590  -13.2866   -0.3279 H   0  0  0  1  0  0  0  0  0  0  0  0
   17.8244  -13.3399   -4.2511 C   0  0  0  1  0  0  0  0  0  0  0  0
   18.2061  -13.8624   -5.1033 H   0  0  0  1  0  0  0  0  0  0  0  0
   16.5886  -13.9318   -3.8424 O   0  0  0  1  0  0  0  0  0  0  0  0
   16.5889  -14.8643   -4.0708 H   0  0  0  1  0  0  0  0  0  0  0  0
   18.8231  -13.4276   -3.1185 C   0  0  0  1  0  0  0  0  0  0  0  0
   19.7778  -13.0949   -3.4689 H   0  0  0  1  0  0  0  0  0  0  0  0
   17.5900  -11.8765   -4.6160 C   0  0  0  1  0  0  0  0  0  0  0  0
   16.8307  -11.8104   -5.3669 H   0  0  0  1  0  0  0  0  0  0  0  0
   18.8640  -11.2762   -5.1372 C   0  0  0  1  0  0  0  0  0  0  0  0
   19.6985  -11.7307   -4.6454 H   0  0  0  1  0  0  0  0  0  0  0  0
   18.8659  -10.2237   -4.9448 H   0  0  0  1  0  0  0  0  0  0  0  0
   18.9611  -11.5008   -6.5375 O   0  0  0  1  0  0  0  0  0  0  0  0
   19.8156  -11.8880   -6.7414 H   0  0  0  1  0  0  0  0  0  0  0  0
   17.1711  -11.1724   -3.4467 O   0  0  0  1  0  0  0  0  0  0  0  0
   18.9202  -14.7859   -2.6877 O   0  0  0  1  0  0  0  0  0  0  0  0
   18.4828  -15.3561   -3.3243 H   0  0  0  1  0  0  0  0  0  0  0  0
  1  2  1  0  0  0  0
  1  3  1  0  0  0  0
  1  4  1  0  0  0  0
  1  5  1  0  0  0  0
  3  7  1  0  0  0  0
  3  8  1  0  0  0  0
  4 10  1  0  0  0  0
  5  6  1  0  0  0  0
  5 12  1  0  0  0  0
  5 14  1  0  0  0  0
  7 16  1  0  0  0  0
  7 18  2  0  0  0  0
  8  9  1  0  0  0  0
  8 19  2  0  0  0  0
 10 11  1  0  0  0  0
 10 12  1  0  0  0  0
 10 21  1  0  0  0  0
 12 13  1  0  0  0  0
 12 24  1  0  0  0  0
 14 15  1  0  0  0  0
 16 17  1  0  0  0  0
 16 26  1  0  0  0  0
 19 20  1  0  0  0  0
 19 26  1  0  0  0  0
 21 22  1  0  0  0  0
 21 23  1  0  0  0  0
 21 27  1  0  0  0  0
 24 25  1  0  0  0  0
 26 28  2  0  0  0  0
 27 29  1  0  0  0  0
 29 30  1  0  0  0  0
 29 31  1  0  0  0  0
 29 32  2  0  0  0  0
 30 33  1  0  0  0  0
 33 34  1  0  0  0  0
 33 35  2  0  0  0  0
 33 36  1  0  0  0  0
 36 37  1  0  0  0  0
 37 38  1  0  0  0  0
 37 39  1  0  0  0  0
 37 56  1  0  0  0  0
 39 40  1  0  0  0  0
 39 41  1  0  0  0  0
 39 47  1  0  0  0  0
 41 42  1  0  0  0  0
 43 44  1  0  0  0  0
 43 45  1  0  0  0  0
 43 47  1  0  0  0  0
 43 49  1  0  0  0  0
 45 46  1  0  0  0  0
 47 48  1  0  0  0  0
 47 57  1  0  0  0  0
 49 50  1  0  0  0  0
 49 51  1  0  0  0  0
 49 56  1  0  0  0  0
 51 52  1  0  0  0  0
 51 53  1  0  0  0  0
 51 54  1  0  0  0  0
 54 55  1  0  0  0  0
 57 58  1  0  0  0  0
M  BCL ATM C_TeTeTeTe H_S N_TrTrTrPi2 O_Te2Te2TeTe C_TeTeTeTe H_S C_TrTrTrPi C_TrTrTrPi H_S C_TeTeTeTe H_S C_TeTeTeTe H_S O_Te2Te2TeTe H_S N_TrTrTrPi2 H_S O_Tr2Tr2TrPi C_TrTrTrPi H_S C_TeTeTeTe H_S H_S O_Te2Te2TeTe H_S C_TrTrTrPi O_Tr2TrTrPi2 O_Tr2Tr2TrPi P_TeTeTeTePi O_Tr2TrTrPi2 O_Te2Te2TeTe O_Tr2Tr2TrPi P_TeTeTeTePi O_Te2Te2TeTe O_Tr2Tr2TrPi O_Tr2TrTrPi2 C_TeTeTeTe H_S C_TeTeTeTe H_S O_Te2Te2TeTe H_S C_TeTeTeTe H_S O_Te2Te2TeTe H_S C_TeTeTeTe H_S C_TeTeTeTe H_S C_TeTeTeTe H_S H_S O_Te2Te2TeTe H_S O_Te2Te2TeTe O_Te2Te2TeTe H_S
M  BCL BND NonConjugatedSingleBond NonConjugatedSingleBond NonConjugatedSingleBondInRing NonConjugatedSingleBondInRing ConjugatedSingleBondInRing ConjugatedSingleBondInRing NonConjugatedSingleBondInRing NonConjugatedSingleBond NonConjugatedSingleBondInRing NonConjugatedSingleBond ConjugatedSingleBondInRing ConjugatedDoubleBond NonConjugatedSingleBond ConjugatedDoubleBondInRing NonConjugatedSingleBond NonConjugatedSingleBondInRing NonConjugatedSingleBond NonConjugatedSingleBond NonConjugatedSingleBond NonConjugatedSingleBond NonConjugatedSingleBond ConjugatedSingleBondInRing NonConjugatedSingleBond ConjugatedSingleBondInRing NonConjugatedSingleBond NonConjugatedSingleBond NonConjugatedSingleBond NonConjugatedSingleBond ConjugatedDoubleBond ConjugatedSingleBond ConjugatedSingleBond ConjugatedSingleBond ConjugatedDoubleBond ConjugatedSingleBond ConjugatedSingleBond ConjugatedDoubleBond ConjugatedSingleBond NonConjugatedSingleBond NonConjugatedSingleBond NonConjugatedSingleBondInRing NonConjugatedSingleBondInRing NonConjugatedSingleBond NonConjugatedSingleBond NonConjugatedSingleBondInRing NonConjugatedSingleBond NonConjugatedSingleBond NonConjugatedSingleBond NonConjugatedSingleBondInRing NonConjugatedSingleBondInRing NonConjugatedSingleBond NonConjugatedSingleBond NonConjugatedSingleBond NonConjugatedSingleBond NonConjugatedSingleBond NonConjugatedSingleBondInRing NonConjugatedSingleBond NonConjugatedSingleBond NonConjugatedSingleBond NonConjugatedSingleBond NonConjugatedSingleBond
M  BCL CHI   1   S   5   S  10   S  12   R  29   S  33   R  37   S  39   R  43   R  47   R  49   S
M  BCL DBI - Z - - -
M  END
> <ConfClashScore>
0.00469792 

> <ConfOneFourInteractionScore>
-0.964483 

> <ConfScore>
0.487998 

> <ConfScorePBest>
0.00541646 

> <ConfTolerance>
2.18809 

$$$$
ChEBI.****
  PyMOL2.5          3D                             0

 58 60  0  0  0  0  0  0  0  0999 V2000
   14.1938   -5.9754   -1.8913 C   0  0  0  1  0  0  0  0  0  0  0  0
   14.5031   -6.0312   -0.8685 H   0  0  0  1  0  0  0  0  0  0  0  0
   13.0016   -5.1247   -1.9972 N   0  0  0  1  0  0  0  0  0  0  0  0
   15.2571   -5.4478   -2.7059 O   0  0  0  1  0  0  0  0  0  0  0  0
   13.8993   -7.3607   -2.4269 C   0  0  0  1  0  0  0  0  0  0  0  0
   14.4334   -8.1059   -1.8752 H   0  0  0  1  0  0  0  0  0  0  0  0
   12.1309   -5.0878   -0.9360 C   0  0  0  1  0  0  0  0  0  0  0  0
   12.8097   -4.3905   -3.1781 C   0  0  0  1  0  0  0  0  0  0  0  0
   13.4967   -4.4272   -3.9581 H   0  0  0  1  0  0  0  0  0  0  0  0
   15.5885   -6.3892   -3.7430 C   0  0  0  1  0  0  0  0  0  0  0  0
   15.7631   -5.8817   -4.6687 H   0  0  0  1  0  0  0  0  0  0  0  0
   14.3846   -7.2945   -3.8541 C   0  0  0  1  0  0  0  0  0  0  0  0
   14.6605   -8.2634   -4.2147 H   0  0  0  1  0  0  0  0  0  0  0  0
   12.4997   -7.6413   -2.3757 O   0  0  0  1  0  0  0  0  0  0  0  0
   12.3656   -8.5883   -2.2930 H   0  0  0  1  0  0  0  0  0  0  0  0
   11.0136   -4.3104   -1.0774 N   0  0  0  1  0  0  0  0  0  0  0  0
   10.3802   -4.2662   -0.3309 H   0  0  0  1  0  0  0  0  0  0  0  0
   12.3436   -5.7192    0.0860 O   0  0  0  1  0  0  0  0  0  0  0  0
   11.6718   -3.6197   -3.2580 C   0  0  0  1  0  0  0  0  0  0  0  0
   11.5155   -3.0522   -4.1153 H   0  0  0  1  0  0  0  0  0  0  0  0
   16.7876   -7.1657   -3.3731 C   0  0  0  1  0  0  0  0  0  0  0  0
   17.5010   -7.1126   -4.1689 H   0  0  0  1  0  0  0  0  0  0  0  0
   16.5100   -8.1860   -3.2097 H   0  0  0  1  0  0  0  0  0  0  0  0
   13.3916   -6.7312   -4.7123 O   0  0  0  1  0  0  0  0  0  0  0  0
   12.5199   -7.0019   -4.4147 H   0  0  0  1  0  0  0  0  0  0  0  0
   10.7262   -3.5662   -2.2479 C   0  0  0  1  0  0  0  0  0  0  0  0
   17.3810   -6.6340   -2.1652 O   0  0  0  1  0  0  0  0  0  0  0  0
    9.7014   -2.9138   -2.3599 O   0  0  0  1  0  0  0  0  0  0  0  0
   18.0091   -7.5915   -1.0860 P   0  0  0  1  0  0  0  0  0  0  0  0
   19.0396   -8.4525   -1.9848 O   0  0  0  1  0  0  0  0  0  0  0  0
   18.8850   -6.7062   -0.1652 O   0  0  0  0  0  0  0  0  0  0  0  0
   17.0216   -8.4509   -0.4258 O   0  0  0  1  0  0  0  0  0  0  0  0
   20.0338   -9.6904   -1.7733 P   0  0  0  1  0  0  0  0  0  0  0  0
   21.3592   -9.2310   -2.2951 O   0  0  0  0  0  0  0  0  0  0  0  0
   20.0262  -10.1937   -0.3673 O   0  0  0  1  0  0  0  0  0  0  0  0
   19.3533  -10.7239   -2.7453 O   0  0  0  1  0  0  0  0  0  0  0  0
   18.1458  -11.3990   -2.3714 C   0  0  0  1  0  0  0  0  0  0  0  0
   17.7397  -10.9439   -1.4923 H   0  0  0  1  0  0  0  0  0  0  0  0
   18.5262  -12.7586   -1.9994 C   0  0  0  1  0  0  0  0  0  0  0  0
   17.7397  -13.2045   -1.4273 H   0  0  0  1  0  0  0  0  0  0  0  0
   19.7215  -12.7208   -1.2184 O   0  0  0  1  0  0  0  0  0  0  0  0
   19.5903  -12.1482   -0.4591 H   0  0  0  1  0  0  0  0  0  0  0  0
   17.8395  -13.2876   -4.3930 C   0  0  0  1  0  0  0  0  0  0  0  0
   18.2566  -13.7134   -5.2816 H   0  0  0  1  0  0  0  0  0  0  0  0
   16.5742  -13.8929   -4.1229 O   0  0  0  1  0  0  0  0  0  0  0  0
   16.6941  -14.8338   -3.9752 H   0  0  0  1  0  0  0  0  0  0  0  0
   18.7654  -13.5729   -3.2417 C   0  0  0  1  0  0  0  0  0  0  0  0
   19.7665  -13.3863   -3.5702 H   0  0  0  1  0  0  0  0  0  0  0  0
   17.6285  -11.8000   -4.6193 C   0  0  0  1  0  0  0  0  0  0  0  0
   16.8329  -11.6496   -5.3188 H   0  0  0  1  0  0  0  0  0  0  0  0
   18.8912  -11.1830   -5.1549 C   0  0  0  1  0  0  0  0  0  0  0  0
   18.8990  -11.2865   -6.2198 H   0  0  0  1  0  0  0  0  0  0  0  0
   19.7298  -11.7016   -4.7394 H   0  0  0  1  0  0  0  0  0  0  0  0
   19.0015   -9.8035   -4.8299 O   0  0  0  1  0  0  0  0  0  0  0  0
   18.1245   -9.4183   -4.7658 H   0  0  0  1  0  0  0  0  0  0  0  0
   17.2827  -11.1855   -3.3368 O   0  0  0  1  0  0  0  0  0  0  0  0
   18.6261  -14.9520   -2.8969 O   0  0  0  1  0  0  0  0  0  0  0  0
   17.7172  -15.1286   -2.6430 H   0  0  0  1  0  0  0  0  0  0  0  0
  1  2  1  0  0  0  0
  1  3  1  0  0  0  0
  1  4  1  0  0  0  0
  1  5  1  0  0  0  0
  3  7  1  0  0  0  0
  3  8  1  0  0  0  0
  4 10  1  0  0  0  0
  5  6  1  0  0  0  0
  5 12  1  0  0  0  0
  5 14  1  0  0  0  0
  7 16  1  0  0  0  0
  7 18  2  0  0  0  0
  8  9  1  0  0  0  0
  8 19  2  0  0  0  0
 10 11  1  0  0  0  0
 10 12  1  0  0  0  0
 10 21  1  0  0  0  0
 12 13  1  0  0  0  0
 12 24  1  0  0  0  0
 14 15  1  0  0  0  0
 16 17  1  0  0  0  0
 16 26  1  0  0  0  0
 19 20  1  0  0  0  0
 19 26  1  0  0  0  0
 21 22  1  0  0  0  0
 21 23  1  0  0  0  0
 21 27  1  0  0  0  0
 24 25  1  0  0  0  0
 26 28  2  0  0  0  0
 27 29  1  0  0  0  0
 29 30  1  0  0  0  0
 29 31  1  0  0  0  0
 29 32  2  0  0  0  0
 30 33  1  0  0  0  0
 33 34  1  0  0  0  0
 33 35  2  0  0  0  0
 33 36  1  0  0  0  0
 36 37  1  0  0  0  0
 37 38  1  0  0  0  0
 37 39  1  0  0  0  0
 37 56  1  0  0  0  0
 39 40  1  0  0  0  0
 39 41  1  0  0  0  0
 39 47  1  0  0  0  0
 41 42  1  0  0  0  0
 43 44  1  0  0  0  0
 43 45  1  0  0  0  0
 43 47  1  0  0  0  0
 43 49  1  0  0  0  0
 45 46  1  0  0  0  0
 47 48  1  0  0  0  0
 47 57  1  0  0  0  0
 49 50  1  0  0  0  0
 49 51  1  0  0  0  0
 49 56  1  0  0  0  0
 51 52  1  0  0  0  0
 51 53  1  0  0  0  0
 51 54  1  0  0  0  0
 54 55  1  0  0  0  0
 57 58  1  0  0  0  0
M  BCL ATM C_TeTeTeTe H_S N_TrTrTrPi2 O_Te2Te2TeTe C_TeTeTeTe H_S C_TrTrTrPi C_TrTrTrPi H_S C_TeTeTeTe H_S C_TeTeTeTe H_S O_Te2Te2TeTe H_S N_TrTrTrPi2 H_S O_Tr2Tr2TrPi C_TrTrTrPi H_S C_TeTeTeTe H_S H_S O_Te2Te2TeTe H_S C_TrTrTrPi O_Tr2TrTrPi2 O_Tr2Tr2TrPi P_TeTeTeTePi O_Tr2TrTrPi2 O_Te2Te2TeTe O_Tr2Tr2TrPi P_TeTeTeTePi O_Te2Te2TeTe O_Tr2Tr2TrPi O_Tr2TrTrPi2 C_TeTeTeTe H_S C_TeTeTeTe H_S O_Te2Te2TeTe H_S C_TeTeTeTe H_S O_Te2Te2TeTe H_S C_TeTeTeTe H_S C_TeTeTeTe H_S C_TeTeTeTe H_S H_S O_Te2Te2TeTe H_S O_Te2Te2TeTe O_Te2Te2TeTe H_S
M  BCL BND NonConjugatedSingleBond NonConjugatedSingleBond NonConjugatedSingleBondInRing NonConjugatedSingleBondInRing ConjugatedSingleBondInRing ConjugatedSingleBondInRing NonConjugatedSingleBondInRing NonConjugatedSingleBond NonConjugatedSingleBondInRing NonConjugatedSingleBond ConjugatedSingleBondInRing ConjugatedDoubleBond NonConjugatedSingleBond ConjugatedDoubleBondInRing NonConjugatedSingleBond NonConjugatedSingleBondInRing NonConjugatedSingleBond NonConjugatedSingleBond NonConjugatedSingleBond NonConjugatedSingleBond NonConjugatedSingleBond ConjugatedSingleBondInRing NonConjugatedSingleBond ConjugatedSingleBondInRing NonConjugatedSingleBond NonConjugatedSingleBond NonConjugatedSingleBond NonConjugatedSingleBond ConjugatedDoubleBond ConjugatedSingleBond ConjugatedSingleBond ConjugatedSingleBond ConjugatedDoubleBond ConjugatedSingleBond ConjugatedSingleBond ConjugatedDoubleBond ConjugatedSingleBond NonConjugatedSingleBond NonConjugatedSingleBond NonConjugatedSingleBondInRing NonConjugatedSingleBondInRing NonConjugatedSingleBond NonConjugatedSingleBond NonConjugatedSingleBondInRing NonConjugatedSingleBond NonConjugatedSingleBond NonConjugatedSingleBond NonConjugatedSingleBondInRing NonConjugatedSingleBondInRing NonConjugatedSingleBond NonConjugatedSingleBond NonConjugatedSingleBond NonConjugatedSingleBond NonConjugatedSingleBond NonConjugatedSingleBondInRing NonConjugatedSingleBond NonConjugatedSingleBond NonConjugatedSingleBond NonConjugatedSingleBond NonConjugatedSingleBond
M  BCL CHI   1   S   5   S  10   S  12   R  29   S  33   R  37   S  39   R  43   R  47   R  49   S
M  BCL DBI - Z - - -
M  END
> <ConfClashScore>
0.00127489 

> <ConfOneFourInteractionScore>
-0.982389 

> <ConfScore>
0.494294 

> <ConfScorePBest>
0.00531345 

> <ConfTolerance>
1.95763 

$$$$
ChEBI.****
  PyMOL2.5          3D                             0

 58 60  0  0  0  0  0  0  0  0999 V2000
   24.6416  -12.0065    1.8791 C   0  0  0  1  0  0  0  0  0  0  0  0
   25.5486  -11.4771    1.6740 H   0  0  0  1  0  0  0  0  0  0  0  0
   24.8891  -13.0210    2.9071 N   0  0  0  1  0  0  0  0  0  0  0  0
   23.6591  -11.1125    2.3206 O   0  0  0  1  0  0  0  0  0  0  0  0
   24.1283  -12.6786    0.5958 C   0  0  0  1  0  0  0  0  0  0  0  0
   24.8908  -12.7104   -0.1543 H   0  0  0  1  0  0  0  0  0  0  0  0
   26.1470  -13.5796    3.0055 C   0  0  0  1  0  0  0  0  0  0  0  0
   23.8710  -13.3827    3.7348 C   0  0  0  1  0  0  0  0  0  0  0  0
   22.9446  -12.9244    3.6185 H   0  0  0  1  0  0  0  0  0  0  0  0
   22.4671  -11.2033    1.4824 C   0  0  0  1  0  0  0  0  0  0  0  0
   21.7452  -11.8608    1.9202 H   0  0  0  1  0  0  0  0  0  0  0  0
   22.9737  -11.7609    0.1721 C   0  0  0  1  0  0  0  0  0  0  0  0
   23.3230  -10.9773   -0.4673 H   0  0  0  1  0  0  0  0  0  0  0  0
   23.6630  -14.0031    0.8591 O   0  0  0  1  0  0  0  0  0  0  0  0
   24.3022  -14.4642    1.4073 H   0  0  0  1  0  0  0  0  0  0  0  0
   26.2694  -14.5462    3.9952 N   0  0  0  1  0  0  0  0  0  0  0  0
   27.1420  -14.9819    4.0907 H   0  0  0  1  0  0  0  0  0  0  0  0
   27.0741  -13.2517    2.2835 O   0  0  0  1  0  0  0  0  0  0  0  0
   24.0183  -14.3134    4.7003 C   0  0  0  1  0  0  0  0  0  0  0  0
   23.2270  -14.5669    5.3257 H   0  0  0  1  0  0  0  0  0  0  0  0
   21.8569   -9.8550    1.2828 C   0  0  0  1  0  0  0  0  0  0  0  0
   22.5668   -9.1979    0.8254 H   0  0  0  1  0  0  0  0  0  0  0  0
   21.5511   -9.4504    2.2249 H   0  0  0  1  0  0  0  0  0  0  0  0
   21.9518  -12.5019   -0.4964 O   0  0  0  1  0  0  0  0  0  0  0  0
   21.1296  -12.4277   -0.0065 H   0  0  0  1  0  0  0  0  0  0  0  0
   25.2888  -14.9368    4.8367 C   0  0  0  1  0  0  0  0  0  0  0  0
   20.7072  -10.0165    0.4192 O   0  0  0  1  0  0  0  0  0  0  0  0
   25.4856  -15.7931    5.6830 O   0  0  0  1  0  0  0  0  0  0  0  0
   19.5332   -8.9026    0.3834 P   0  0  0  1  0  0  0  0  0  0  0  0
   18.9814   -8.9448   -1.1074 O   0  0  0  1  0  0  0  0  0  0  0  0
   18.3669   -9.3063    1.2297 O   0  0  0  0  0  0  0  0  0  0  0  0
   20.2109   -7.6237    0.6926 O   0  0  0  1  0  0  0  0  0  0  0  0
   19.5224   -9.2412   -2.5741 P   0  0  0  1  0  0  0  0  0  0  0  0
   18.5690   -8.5900   -3.5023 O   0  0  0  0  0  0  0  0  0  0  0  0
   20.9627   -8.9252   -2.6711 O   0  0  0  1  0  0  0  0  0  0  0  0
   19.2719  -10.7779   -2.7447 O   0  0  0  1  0  0  0  0  0  0  0  0
   18.0563  -11.4486   -2.4503 C   0  0  0  1  0  0  0  0  0  0  0  0
   17.5957  -10.9952   -1.5976 H   0  0  0  1  0  0  0  0  0  0  0  0
   18.4149  -12.8081   -2.0570 C   0  0  0  1  0  0  0  0  0  0  0  0
   17.5949  -13.2559   -1.5354 H   0  0  0  1  0  0  0  0  0  0  0  0
   19.5593  -12.7698   -1.2032 O   0  0  0  1  0  0  0  0  0  0  0  0
   19.2842  -12.5588   -0.3080 H   0  0  0  1  0  0  0  0  0  0  0  0
   17.8790  -13.3350   -4.4893 C   0  0  0  1  0  0  0  0  0  0  0  0
   18.3511  -13.7591   -5.3508 H   0  0  0  1  0  0  0  0  0  0  0  0
   16.6002  -13.9423   -4.2991 O   0  0  0  1  0  0  0  0  0  0  0  0
   16.1978  -13.5979   -3.4984 H   0  0  0  1  0  0  0  0  0  0  0  0
   18.7319  -13.6206   -3.2831 C   0  0  0  1  0  0  0  0  0  0  0  0
   19.7512  -13.4321   -3.5485 H   0  0  0  1  0  0  0  0  0  0  0  0
   17.6803  -11.8474   -4.7265 C   0  0  0  1  0  0  0  0  0  0  0  0
   16.9295  -11.6972   -5.4739 H   0  0  0  1  0  0  0  0  0  0  0  0
   18.9729  -11.2279   -5.1818 C   0  0  0  1  0  0  0  0  0  0  0  0
   18.9733  -10.1936   -4.9077 H   0  0  0  1  0  0  0  0  0  0  0  0
   19.0394  -11.3154   -6.2461 H   0  0  0  1  0  0  0  0  0  0  0  0
   20.1092  -11.8540   -4.6009 O   0  0  0  1  0  0  0  0  0  0  0  0
   20.8016  -11.2023   -4.4686 H   0  0  0  1  0  0  0  0  0  0  0  0
   17.2546  -11.2350   -3.4672 O   0  0  0  1  0  0  0  0  0  0  0  0
   18.5735  -15.0003   -2.9492 O   0  0  0  1  0  0  0  0  0  0  0  0
   18.9920  -15.1754   -2.1032 H   0  0  0  1  0  0  0  0  0  0  0  0
  1  2  1  0  0  0  0
  1  3  1  0  0  0  0
  1  4  1  0  0  0  0
  1  5  1  0  0  0  0
  3  7  1  0  0  0  0
  3  8  1  0  0  0  0
  4 10  1  0  0  0  0
  5  6  1  0  0  0  0
  5 12  1  0  0  0  0
  5 14  1  0  0  0  0
  7 16  1  0  0  0  0
  7 18  2  0  0  0  0
  8  9  1  0  0  0  0
  8 19  2  0  0  0  0
 10 11  1  0  0  0  0
 10 12  1  0  0  0  0
 10 21  1  0  0  0  0
 12 13  1  0  0  0  0
 12 24  1  0  0  0  0
 14 15  1  0  0  0  0
 16 17  1  0  0  0  0
 16 26  1  0  0  0  0
 19 20  1  0  0  0  0
 19 26  1  0  0  0  0
 21 22  1  0  0  0  0
 21 23  1  0  0  0  0
 21 27  1  0  0  0  0
 24 25  1  0  0  0  0
 26 28  2  0  0  0  0
 27 29  1  0  0  0  0
 29 30  1  0  0  0  0
 29 31  1  0  0  0  0
 29 32  2  0  0  0  0
 30 33  1  0  0  0  0
 33 34  1  0  0  0  0
 33 35  2  0  0  0  0
 33 36  1  0  0  0  0
 36 37  1  0  0  0  0
 37 38  1  0  0  0  0
 37 39  1  0  0  0  0
 37 56  1  0  0  0  0
 39 40  1  0  0  0  0
 39 41  1  0  0  0  0
 39 47  1  0  0  0  0
 41 42  1  0  0  0  0
 43 44  1  0  0  0  0
 43 45  1  0  0  0  0
 43 47  1  0  0  0  0
 43 49  1  0  0  0  0
 45 46  1  0  0  0  0
 47 48  1  0  0  0  0
 47 57  1  0  0  0  0
 49 50  1  0  0  0  0
 49 51  1  0  0  0  0
 49 56  1  0  0  0  0
 51 52  1  0  0  0  0
 51 53  1  0  0  0  0
 51 54  1  0  0  0  0
 54 55  1  0  0  0  0
 57 58  1  0  0  0  0
M  BCL ATM C_TeTeTeTe H_S N_TrTrTrPi2 O_Te2Te2TeTe C_TeTeTeTe H_S C_TrTrTrPi C_TrTrTrPi H_S C_TeTeTeTe H_S C_TeTeTeTe H_S O_Te2Te2TeTe H_S N_TrTrTrPi2 H_S O_Tr2Tr2TrPi C_TrTrTrPi H_S C_TeTeTeTe H_S H_S O_Te2Te2TeTe H_S C_TrTrTrPi O_Tr2TrTrPi2 O_Tr2Tr2TrPi P_TeTeTeTePi O_Tr2TrTrPi2 O_Te2Te2TeTe O_Tr2Tr2TrPi P_TeTeTeTePi O_Te2Te2TeTe O_Tr2Tr2TrPi O_Tr2TrTrPi2 C_TeTeTeTe H_S C_TeTeTeTe H_S O_Te2Te2TeTe H_S C_TeTeTeTe H_S O_Te2Te2TeTe H_S C_TeTeTeTe H_S C_TeTeTeTe H_S C_TeTeTeTe H_S H_S O_Te2Te2TeTe H_S O_Te2Te2TeTe O_Te2Te2TeTe H_S
M  BCL BND NonConjugatedSingleBond NonConjugatedSingleBond NonConjugatedSingleBondInRing NonConjugatedSingleBondInRing ConjugatedSingleBondInRing ConjugatedSingleBondInRing NonConjugatedSingleBondInRing NonConjugatedSingleBond NonConjugatedSingleBondInRing NonConjugatedSingleBond ConjugatedSingleBondInRing ConjugatedDoubleBond NonConjugatedSingleBond ConjugatedDoubleBondInRing NonConjugatedSingleBond NonConjugatedSingleBondInRing NonConjugatedSingleBond NonConjugatedSingleBond NonConjugatedSingleBond NonConjugatedSingleBond NonConjugatedSingleBond ConjugatedSingleBondInRing NonConjugatedSingleBond ConjugatedSingleBondInRing NonConjugatedSingleBond NonConjugatedSingleBond NonConjugatedSingleBond NonConjugatedSingleBond ConjugatedDoubleBond ConjugatedSingleBond ConjugatedSingleBond ConjugatedSingleBond ConjugatedDoubleBond ConjugatedSingleBond ConjugatedSingleBond ConjugatedDoubleBond ConjugatedSingleBond NonConjugatedSingleBond NonConjugatedSingleBond NonConjugatedSingleBondInRing NonConjugatedSingleBondInRing NonConjugatedSingleBond NonConjugatedSingleBond NonConjugatedSingleBondInRing NonConjugatedSingleBond NonConjugatedSingleBond NonConjugatedSingleBond NonConjugatedSingleBondInRing NonConjugatedSingleBondInRing NonConjugatedSingleBond NonConjugatedSingleBond NonConjugatedSingleBond NonConjugatedSingleBond NonConjugatedSingleBond NonConjugatedSingleBondInRing NonConjugatedSingleBond NonConjugatedSingleBond NonConjugatedSingleBond NonConjugatedSingleBond NonConjugatedSingleBond
M  BCL CHI   1   S   5   S  10   S  12   R  29   S  33   R  37   S  39   R  43   R  47   R  49   S
M  BCL DBI - Z - - -
M  END
> <ConfClashScore>
0.0024741 

> <ConfOneFourInteractionScore>
-0.976101 

> <ConfScore>
0.54792 

> <ConfScorePBest>
0.00521045 

> <ConfTolerance>
1.97844 

$$$$
ChEBI.****
  PyMOL2.5          3D                             0

 58 60  0  0  0  0  0  0  0  0999 V2000
   23.4140   -6.2839    0.0261 C   0  0  0  1  0  0  0  0  0  0  0  0
   23.0570   -7.1119    0.6021 H   0  0  0  1  0  0  0  0  0  0  0  0
   24.8108   -6.0044    0.3831 N   0  0  0  1  0  0  0  0  0  0  0  0
   23.3227   -6.5803   -1.3390 O   0  0  0  1  0  0  0  0  0  0  0  0
   22.5473   -5.0448    0.3009 C   0  0  0  1  0  0  0  0  0  0  0  0
   21.9540   -5.1769    1.1815 H   0  0  0  1  0  0  0  0  0  0  0  0
   25.5648   -5.1925   -0.4435 C   0  0  0  1  0  0  0  0  0  0  0  0
   25.3433   -6.5722    1.5590 C   0  0  0  1  0  0  0  0  0  0  0  0
   24.7426   -7.1783    2.1534 H   0  0  0  1  0  0  0  0  0  0  0  0
   22.5337   -5.5670   -2.0335 C   0  0  0  1  0  0  0  0  0  0  0  0
   23.1692   -4.8239   -2.4680 H   0  0  0  1  0  0  0  0  0  0  0  0
   21.6661   -4.9639   -0.9527 C   0  0  0  1  0  0  0  0  0  0  0  0
   20.7665   -5.5290   -0.8248 H   0  0  0  1  0  0  0  0  0  0  0  0
   23.3531   -3.8737    0.4401 O   0  0  0  1  0  0  0  0  0  0  0  0
   22.9354   -3.2689    1.0577 H   0  0  0  1  0  0  0  0  0  0  0  0
   26.8581   -4.9940   -0.0580 N   0  0  0  1  0  0  0  0  0  0  0  0
   27.4072   -4.4236   -0.6354 H   0  0  0  1  0  0  0  0  0  0  0  0
   25.1033   -4.6859   -1.4528 O   0  0  0  1  0  0  0  0  0  0  0  0
   26.6263   -6.3389    1.9249 C   0  0  0  1  0  0  0  0  0  0  0  0
   27.0016   -6.7413    2.8074 H   0  0  0  1  0  0  0  0  0  0  0  0
   21.6880   -6.1942   -3.1072 C   0  0  0  1  0  0  0  0  0  0  0  0
   21.5183   -5.4988   -3.9025 H   0  0  0  1  0  0  0  0  0  0  0  0
   20.7491   -6.5124   -2.7045 H   0  0  0  1  0  0  0  0  0  0  0  0
   21.3378   -3.6080   -1.2592 O   0  0  0  1  0  0  0  0  0  0  0  0
   22.1372   -3.0763   -1.2566 H   0  0  0  1  0  0  0  0  0  0  0  0
   27.4759   -5.5192    1.0712 C   0  0  0  1  0  0  0  0  0  0  0  0
   22.4387   -7.3237   -3.5808 O   0  0  0  1  0  0  0  0  0  0  0  0
   28.6494   -5.3080    1.3296 O   0  0  0  1  0  0  0  0  0  0  0  0
   21.8113   -8.7175   -4.0594 P   0  0  0  1  0  0  0  0  0  0  0  0
   21.4824   -9.4512   -2.6756 O   0  0  0  1  0  0  0  0  0  0  0  0
   20.5326   -8.4326   -4.7829 O   0  0  0  0  0  0  0  0  0  0  0  0
   22.8958   -9.4801   -4.7192 O   0  0  0  1  0  0  0  0  0  0  0  0
   20.0815   -9.5751   -1.9514 P   0  0  0  1  0  0  0  0  0  0  0  0
   20.4175  -10.0811   -0.5837 O   0  0  0  0  0  0  0  0  0  0  0  0
   19.2375   -8.3693   -2.1200 O   0  0  0  1  0  0  0  0  0  0  0  0
   19.3304  -10.7037   -2.7359 O   0  0  0  1  0  0  0  0  0  0  0  0
   18.0846  -11.3007   -2.3421 C   0  0  0  1  0  0  0  0  0  0  0  0
   17.6598  -10.7412   -1.5349 H   0  0  0  1  0  0  0  0  0  0  0  0
   18.3383  -12.7331   -1.8807 C   0  0  0  1  0  0  0  0  0  0  0  0
   17.4271  -13.1531   -1.5091 H   0  0  0  1  0  0  0  0  0  0  0  0
   19.3200  -12.7300   -0.8432 O   0  0  0  1  0  0  0  0  0  0  0  0
   19.9893  -12.0698   -1.0373 H   0  0  0  1  0  0  0  0  0  0  0  0
   17.9215  -13.4526   -4.2496 C   0  0  0  1  0  0  0  0  0  0  0  0
   18.3662  -13.9471   -5.0879 H   0  0  0  1  0  0  0  0  0  0  0  0
   16.6686  -14.0663   -3.9436 O   0  0  0  1  0  0  0  0  0  0  0  0
   16.0614  -13.9377   -4.6760 H   0  0  0  1  0  0  0  0  0  0  0  0
   18.8423  -13.5727   -3.0526 C   0  0  0  1  0  0  0  0  0  0  0  0
   19.8193  -13.2349   -3.3289 H   0  0  0  1  0  0  0  0  0  0  0  0
   17.6910  -11.9803   -4.5963 C   0  0  0  1  0  0  0  0  0  0  0  0
   16.9800  -11.9100   -5.3929 H   0  0  0  1  0  0  0  0  0  0  0  0
   18.9911  -11.3594   -5.0276 C   0  0  0  1  0  0  0  0  0  0  0  0
   19.1867  -11.6414   -6.0411 H   0  0  0  1  0  0  0  0  0  0  0  0
   19.7733  -11.7276   -4.3971 H   0  0  0  1  0  0  0  0  0  0  0  0
   18.9688   -9.9376   -4.9451 O   0  0  0  1  0  0  0  0  0  0  0  0
   18.0663   -9.6385   -4.8120 H   0  0  0  1  0  0  0  0  0  0  0  0
   17.1883  -11.2831   -3.4457 O   0  0  0  1  0  0  0  0  0  0  0  0
   18.9065  -14.9281   -2.6546 O   0  0  0  1  0  0  0  0  0  0  0  0
   18.1055  -15.3808   -2.9287 H   0  0  0  1  0  0  0  0  0  0  0  0
  1  2  1  0  0  0  0
  1  3  1  0  0  0  0
  1  4  1  0  0  0  0
  1  5  1  0  0  0  0
  3  7  1  0  0  0  0
  3  8  1  0  0  0  0
  4 10  1  0  0  0  0
  5  6  1  0  0  0  0
  5 12  1  0  0  0  0
  5 14  1  0  0  0  0
  7 16  1  0  0  0  0
  7 18  2  0  0  0  0
  8  9  1  0  0  0  0
  8 19  2  0  0  0  0
 10 11  1  0  0  0  0
 10 12  1  0  0  0  0
 10 21  1  0  0  0  0
 12 13  1  0  0  0  0
 12 24  1  0  0  0  0
 14 15  1  0  0  0  0
 16 17  1  0  0  0  0
 16 26  1  0  0  0  0
 19 20  1  0  0  0  0
 19 26  1  0  0  0  0
 21 22  1  0  0  0  0
 21 23  1  0  0  0  0
 21 27  1  0  0  0  0
 24 25  1  0  0  0  0
 26 28  2  0  0  0  0
 27 29  1  0  0  0  0
 29 30  1  0  0  0  0
 29 31  1  0  0  0  0
 29 32  2  0  0  0  0
 30 33  1  0  0  0  0
 33 34  1  0  0  0  0
 33 35  2  0  0  0  0
 33 36  1  0  0  0  0
 36 37  1  0  0  0  0
 37 38  1  0  0  0  0
 37 39  1  0  0  0  0
 37 56  1  0  0  0  0
 39 40  1  0  0  0  0
 39 41  1  0  0  0  0
 39 47  1  0  0  0  0
 41 42  1  0  0  0  0
 43 44  1  0  0  0  0
 43 45  1  0  0  0  0
 43 47  1  0  0  0  0
 43 49  1  0  0  0  0
 45 46  1  0  0  0  0
 47 48  1  0  0  0  0
 47 57  1  0  0  0  0
 49 50  1  0  0  0  0
 49 51  1  0  0  0  0
 49 56  1  0  0  0  0
 51 52  1  0  0  0  0
 51 53  1  0  0  0  0
 51 54  1  0  0  0  0
 54 55  1  0  0  0  0
 57 58  1  0  0  0  0
M  BCL ATM C_TeTeTeTe H_S N_TrTrTrPi2 O_Te2Te2TeTe C_TeTeTeTe H_S C_TrTrTrPi C_TrTrTrPi H_S C_TeTeTeTe H_S C_TeTeTeTe H_S O_Te2Te2TeTe H_S N_TrTrTrPi2 H_S O_Tr2Tr2TrPi C_TrTrTrPi H_S C_TeTeTeTe H_S H_S O_Te2Te2TeTe H_S C_TrTrTrPi O_Tr2TrTrPi2 O_Tr2Tr2TrPi P_TeTeTeTePi O_Tr2TrTrPi2 O_Te2Te2TeTe O_Tr2Tr2TrPi P_TeTeTeTePi O_Te2Te2TeTe O_Tr2Tr2TrPi O_Tr2TrTrPi2 C_TeTeTeTe H_S C_TeTeTeTe H_S O_Te2Te2TeTe H_S C_TeTeTeTe H_S O_Te2Te2TeTe H_S C_TeTeTeTe H_S C_TeTeTeTe H_S C_TeTeTeTe H_S H_S O_Te2Te2TeTe H_S O_Te2Te2TeTe O_Te2Te2TeTe H_S
M  BCL BND NonConjugatedSingleBond NonConjugatedSingleBond NonConjugatedSingleBondInRing NonConjugatedSingleBondInRing ConjugatedSingleBondInRing ConjugatedSingleBondInRing NonConjugatedSingleBondInRing NonConjugatedSingleBond NonConjugatedSingleBondInRing NonConjugatedSingleBond ConjugatedSingleBondInRing ConjugatedDoubleBond NonConjugatedSingleBond ConjugatedDoubleBondInRing NonConjugatedSingleBond NonConjugatedSingleBondInRing NonConjugatedSingleBond NonConjugatedSingleBond NonConjugatedSingleBond NonConjugatedSingleBond NonConjugatedSingleBond ConjugatedSingleBondInRing NonConjugatedSingleBond ConjugatedSingleBondInRing NonConjugatedSingleBond NonConjugatedSingleBond NonConjugatedSingleBond NonConjugatedSingleBond ConjugatedDoubleBond ConjugatedSingleBond ConjugatedSingleBond ConjugatedSingleBond ConjugatedDoubleBond ConjugatedSingleBond ConjugatedSingleBond ConjugatedDoubleBond ConjugatedSingleBond NonConjugatedSingleBond NonConjugatedSingleBond NonConjugatedSingleBondInRing NonConjugatedSingleBondInRing NonConjugatedSingleBond NonConjugatedSingleBond NonConjugatedSingleBondInRing NonConjugatedSingleBond NonConjugatedSingleBond NonConjugatedSingleBond NonConjugatedSingleBondInRing NonConjugatedSingleBondInRing NonConjugatedSingleBond NonConjugatedSingleBond NonConjugatedSingleBond NonConjugatedSingleBond NonConjugatedSingleBond NonConjugatedSingleBondInRing NonConjugatedSingleBond NonConjugatedSingleBond NonConjugatedSingleBond NonConjugatedSingleBond NonConjugatedSingleBond
M  BCL CHI   1   S   5   S  10   S  12   R  29   S  33   R  37   S  39   R  43   R  47   R  49   S
M  BCL DBI - Z - - -
M  END
> <ConfClashScore>
0.00492731 

> <ConfOneFourInteractionScore>
-0.986379 

> <ConfScore>
0.575525 

> <ConfScorePBest>
0.00510745 

> <ConfTolerance>
2.3224 

$$$$
ChEBI.****
  PyMOL2.5          3D                             0

 58 60  0  0  0  0  0  0  0  0999 V2000
   22.4131  -11.9534   -1.2782 C   0  0  0  1  0  0  0  0  0  0  0  0
   21.4898  -11.5701   -0.8966 H   0  0  0  1  0  0  0  0  0  0  0  0
   22.2152  -13.3231   -1.7497 N   0  0  0  1  0  0  0  0  0  0  0  0
   22.9072  -11.1153   -2.3472 O   0  0  0  1  0  0  0  0  0  0  0  0
   23.5005  -11.9075   -0.2007 C   0  0  0  1  0  0  0  0  0  0  0  0
   23.2705  -11.1762    0.5458 H   0  0  0  1  0  0  0  0  0  0  0  0
   22.5287  -13.6390   -3.0518 C   0  0  0  1  0  0  0  0  0  0  0  0
   21.7241  -14.2601   -0.8901 C   0  0  0  1  0  0  0  0  0  0  0  0
   21.4770  -13.9698    0.0776 H   0  0  0  1  0  0  0  0  0  0  0  0
   24.1730  -10.5875   -2.0574 C   0  0  0  1  0  0  0  0  0  0  0  0
   24.7965  -10.5986   -2.9270 H   0  0  0  1  0  0  0  0  0  0  0  0
   24.7335  -11.5205   -0.9743 C   0  0  0  1  0  0  0  0  0  0  0  0
   25.4358  -11.0088   -0.3500 H   0  0  0  1  0  0  0  0  0  0  0  0
   23.6634  -13.1848    0.4174 O   0  0  0  1  0  0  0  0  0  0  0  0
   23.8713  -13.0667    1.3472 H   0  0  0  1  0  0  0  0  0  0  0  0
   22.3424  -14.9622   -3.4145 N   0  0  0  1  0  0  0  0  0  0  0  0
   22.5516  -15.2121   -4.3387 H   0  0  0  1  0  0  0  0  0  0  0  0
   22.9452  -12.8045   -3.8382 O   0  0  0  1  0  0  0  0  0  0  0  0
   21.5484  -15.5316   -1.2407 C   0  0  0  1  0  0  0  0  0  0  0  0
   21.1693  -16.2107   -0.5502 H   0  0  0  1  0  0  0  0  0  0  0  0
   24.0577   -9.1801   -1.5405 C   0  0  0  1  0  0  0  0  0  0  0  0
   25.0136   -8.8199   -1.2220 H   0  0  0  1  0  0  0  0  0  0  0  0
   23.3695   -9.1382   -0.7222 H   0  0  0  1  0  0  0  0  0  0  0  0
   25.3581  -12.6665   -1.5547 O   0  0  0  1  0  0  0  0  0  0  0  0
   25.7132  -12.4360   -2.4163 H   0  0  0  1  0  0  0  0  0  0  0  0
   21.8781  -15.9698   -2.5614 C   0  0  0  1  0  0  0  0  0  0  0  0
   23.5676   -8.3951   -2.6529 O   0  0  0  1  0  0  0  0  0  0  0  0
   21.7635  -17.1312   -2.9167 O   0  0  0  1  0  0  0  0  0  0  0  0
   22.1874   -7.7691   -2.6814 P   0  0  0  1  0  0  0  0  0  0  0  0
   21.2623   -9.0626   -2.5096 O   0  0  0  1  0  0  0  0  0  0  0  0
   21.9277   -6.7687   -1.5831 O   0  0  0  0  0  0  0  0  0  0  0  0
   21.9370   -7.3185   -4.0550 O   0  0  0  1  0  0  0  0  0  0  0  0
   19.6656   -9.3244   -2.1771 P   0  0  0  1  0  0  0  0  0  0  0  0
   19.6622   -9.2740   -0.6574 O   0  0  0  0  0  0  0  0  0  0  0  0
   18.9097   -8.1893   -2.8212 O   0  0  0  1  0  0  0  0  0  0  0  0
   19.2923  -10.7532   -2.7205 O   0  0  0  1  0  0  0  0  0  0  0  0
   18.0422  -11.3881   -2.3464 C   0  0  0  1  0  0  0  0  0  0  0  0
   17.6289  -10.8891   -1.4948 H   0  0  0  1  0  0  0  0  0  0  0  0
   18.2941  -12.8322   -2.0086 C   0  0  0  1  0  0  0  0  0  0  0  0
   17.3795  -13.2869   -1.6897 H   0  0  0  1  0  0  0  0  0  0  0  0
   19.2502  -12.9111   -0.9658 O   0  0  0  1  0  0  0  0  0  0  0  0
   20.0037  -12.3559   -1.1792 H   0  0  0  1  0  0  0  0  0  0  0  0
   17.9221  -13.3399   -4.4173 C   0  0  0  1  0  0  0  0  0  0  0  0
   18.3872  -13.7583   -5.2854 H   0  0  0  1  0  0  0  0  0  0  0  0
   16.6650  -13.9803   -4.1945 O   0  0  0  1  0  0  0  0  0  0  0  0
   16.4620  -13.9699   -3.2562 H   0  0  0  1  0  0  0  0  0  0  0  0
   18.8145  -13.5546   -3.2172 C   0  0  0  1  0  0  0  0  0  0  0  0
   19.7952  -13.1914   -3.4437 H   0  0  0  1  0  0  0  0  0  0  0  0
   17.7001  -11.8553   -4.6310 C   0  0  0  1  0  0  0  0  0  0  0  0
   17.0284  -11.7032   -5.4498 H   0  0  0  1  0  0  0  0  0  0  0  0
   19.0097  -11.1821   -4.9254 C   0  0  0  1  0  0  0  0  0  0  0  0
   19.7966  -11.6956   -4.4135 H   0  0  0  1  0  0  0  0  0  0  0  0
   18.9702  -10.1661   -4.5919 H   0  0  0  1  0  0  0  0  0  0  0  0
   19.2588  -11.2108   -6.3246 O   0  0  0  1  0  0  0  0  0  0  0  0
   18.8813  -12.0091   -6.7010 H   0  0  0  1  0  0  0  0  0  0  0  0
   17.1319  -11.3110   -3.4264 O   0  0  0  1  0  0  0  0  0  0  0  0
   18.8783  -14.9525   -2.9305 O   0  0  0  1  0  0  0  0  0  0  0  0
   18.0060  -15.2693   -2.6849 H   0  0  0  1  0  0  0  0  0  0  0  0
  1  2  1  0  0  0  0
  1  3  1  0  0  0  0
  1  4  1  0  0  0  0
  1  5  1  0  0  0  0
  3  7  1  0  0  0  0
  3  8  1  0  0  0  0
  4 10  1  0  0  0  0
  5  6  1  0  0  0  0
  5 12  1  0  0  0  0
  5 14  1  0  0  0  0
  7 16  1  0  0  0  0
  7 18  2  0  0  0  0
  8  9  1  0  0  0  0
  8 19  2  0  0  0  0
 10 11  1  0  0  0  0
 10 12  1  0  0  0  0
 10 21  1  0  0  0  0
 12 13  1  0  0  0  0
 12 24  1  0  0  0  0
 14 15  1  0  0  0  0
 16 17  1  0  0  0  0
 16 26  1  0  0  0  0
 19 20  1  0  0  0  0
 19 26  1  0  0  0  0
 21 22  1  0  0  0  0
 21 23  1  0  0  0  0
 21 27  1  0  0  0  0
 24 25  1  0  0  0  0
 26 28  2  0  0  0  0
 27 29  1  0  0  0  0
 29 30  1  0  0  0  0
 29 31  1  0  0  0  0
 29 32  2  0  0  0  0
 30 33  1  0  0  0  0
 33 34  1  0  0  0  0
 33 35  2  0  0  0  0
 33 36  1  0  0  0  0
 36 37  1  0  0  0  0
 37 38  1  0  0  0  0
 37 39  1  0  0  0  0
 37 56  1  0  0  0  0
 39 40  1  0  0  0  0
 39 41  1  0  0  0  0
 39 47  1  0  0  0  0
 41 42  1  0  0  0  0
 43 44  1  0  0  0  0
 43 45  1  0  0  0  0
 43 47  1  0  0  0  0
 43 49  1  0  0  0  0
 45 46  1  0  0  0  0
 47 48  1  0  0  0  0
 47 57  1  0  0  0  0
 49 50  1  0  0  0  0
 49 51  1  0  0  0  0
 49 56  1  0  0  0  0
 51 52  1  0  0  0  0
 51 53  1  0  0  0  0
 51 54  1  0  0  0  0
 54 55  1  0  0  0  0
 57 58  1  0  0  0  0
M  BCL ATM C_TeTeTeTe H_S N_TrTrTrPi2 O_Te2Te2TeTe C_TeTeTeTe H_S C_TrTrTrPi C_TrTrTrPi H_S C_TeTeTeTe H_S C_TeTeTeTe H_S O_Te2Te2TeTe H_S N_TrTrTrPi2 H_S O_Tr2Tr2TrPi C_TrTrTrPi H_S C_TeTeTeTe H_S H_S O_Te2Te2TeTe H_S C_TrTrTrPi O_Tr2TrTrPi2 O_Tr2Tr2TrPi P_TeTeTeTePi O_Tr2TrTrPi2 O_Te2Te2TeTe O_Tr2Tr2TrPi P_TeTeTeTePi O_Te2Te2TeTe O_Tr2Tr2TrPi O_Tr2TrTrPi2 C_TeTeTeTe H_S C_TeTeTeTe H_S O_Te2Te2TeTe H_S C_TeTeTeTe H_S O_Te2Te2TeTe H_S C_TeTeTeTe H_S C_TeTeTeTe H_S C_TeTeTeTe H_S H_S O_Te2Te2TeTe H_S O_Te2Te2TeTe O_Te2Te2TeTe H_S
M  BCL BND NonConjugatedSingleBond NonConjugatedSingleBond NonConjugatedSingleBondInRing NonConjugatedSingleBondInRing ConjugatedSingleBondInRing ConjugatedSingleBondInRing NonConjugatedSingleBondInRing NonConjugatedSingleBond NonConjugatedSingleBondInRing NonConjugatedSingleBond ConjugatedSingleBondInRing ConjugatedDoubleBond NonConjugatedSingleBond ConjugatedDoubleBondInRing NonConjugatedSingleBond NonConjugatedSingleBondInRing NonConjugatedSingleBond NonConjugatedSingleBond NonConjugatedSingleBond NonConjugatedSingleBond NonConjugatedSingleBond ConjugatedSingleBondInRing NonConjugatedSingleBond ConjugatedSingleBondInRing NonConjugatedSingleBond NonConjugatedSingleBond NonConjugatedSingleBond NonConjugatedSingleBond ConjugatedDoubleBond ConjugatedSingleBond ConjugatedSingleBond ConjugatedSingleBond ConjugatedDoubleBond ConjugatedSingleBond ConjugatedSingleBond ConjugatedDoubleBond ConjugatedSingleBond NonConjugatedSingleBond NonConjugatedSingleBond NonConjugatedSingleBondInRing NonConjugatedSingleBondInRing NonConjugatedSingleBond NonConjugatedSingleBond NonConjugatedSingleBondInRing NonConjugatedSingleBond NonConjugatedSingleBond NonConjugatedSingleBond NonConjugatedSingleBondInRing NonConjugatedSingleBondInRing NonConjugatedSingleBond NonConjugatedSingleBond NonConjugatedSingleBond NonConjugatedSingleBond NonConjugatedSingleBond NonConjugatedSingleBondInRing NonConjugatedSingleBond NonConjugatedSingleBond NonConjugatedSingleBond NonConjugatedSingleBond NonConjugatedSingleBond
M  BCL CHI   1   S   5   S  10   S  12   R  29   S  33   R  37   S  39   R  43   R  47   R  49   S
M  BCL DBI - Z - - -
M  END
> <ConfClashScore>
0.00629244 

> <ConfOneFourInteractionScore>
-0.964483 

> <ConfScore>
0.623449 

> <ConfScorePBest>
0.00500445 

> <ConfTolerance>
2.92427 

$$$$
ChEBI.****
  PyMOL2.5          3D                             0

 58 60  0  0  0  0  0  0  0  0999 V2000
   23.6188   -5.2717   -5.8884 C   0  0  0  1  0  0  0  0  0  0  0  0
   23.9193   -4.7618   -4.9970 H   0  0  0  1  0  0  0  0  0  0  0  0
   23.7646   -4.3726   -7.0403 N   0  0  0  1  0  0  0  0  0  0  0  0
   24.3915   -6.4391   -6.0731 O   0  0  0  1  0  0  0  0  0  0  0  0
   22.1832   -5.7497   -5.7674 C   0  0  0  1  0  0  0  0  0  0  0  0
   21.9502   -6.0242   -4.7598 H   0  0  0  1  0  0  0  0  0  0  0  0
   24.0860   -4.8962   -8.2738 C   0  0  0  1  0  0  0  0  0  0  0  0
   23.5785   -3.0211   -6.8722 C   0  0  0  1  0  0  0  0  0  0  0  0
   23.3369   -2.6668   -5.9248 H   0  0  0  1  0  0  0  0  0  0  0  0
   23.5349   -7.5679   -6.3972 C   0  0  0  1  0  0  0  0  0  0  0  0
   23.9004   -8.0824   -7.2612 H   0  0  0  1  0  0  0  0  0  0  0  0
   22.1655   -6.9505   -6.6777 C   0  0  0  1  0  0  0  0  0  0  0  0
   21.3740   -7.6233   -6.4213 H   0  0  0  1  0  0  0  0  0  0  0  0
   21.2661   -4.7496   -6.2133 O   0  0  0  1  0  0  0  0  0  0  0  0
   21.6667   -3.8823   -6.1186 H   0  0  0  1  0  0  0  0  0  0  0  0
   24.2030   -3.9862   -9.2963 N   0  0  0  1  0  0  0  0  0  0  0  0
   24.4312   -4.3405  -10.1811 H   0  0  0  1  0  0  0  0  0  0  0  0
   24.2559   -6.0918   -8.4468 O   0  0  0  1  0  0  0  0  0  0  0  0
   23.6960   -2.1280   -7.8884 C   0  0  0  1  0  0  0  0  0  0  0  0
   23.5481   -1.1116   -7.7250 H   0  0  0  1  0  0  0  0  0  0  0  0
   23.4582   -8.5171   -5.2469 C   0  0  0  1  0  0  0  0  0  0  0  0
   24.4028   -9.0007   -5.1099 H   0  0  0  1  0  0  0  0  0  0  0  0
   22.7036   -9.2530   -5.4315 H   0  0  0  1  0  0  0  0  0  0  0  0
   22.0388   -6.5659   -8.0427 O   0  0  0  1  0  0  0  0  0  0  0  0
   21.3863   -7.1229   -8.4733 H   0  0  0  1  0  0  0  0  0  0  0  0
   24.0302   -2.6238   -9.1964 C   0  0  0  1  0  0  0  0  0  0  0  0
   23.1234   -7.7565   -4.0752 O   0  0  0  1  0  0  0  0  0  0  0  0
   24.1530   -1.8831  -10.1581 O   0  0  0  1  0  0  0  0  0  0  0  0
   22.5691   -8.3714   -2.6921 P   0  0  0  1  0  0  0  0  0  0  0  0
   21.3062   -9.2380   -3.1793 O   0  0  0  1  0  0  0  0  0  0  0  0
   23.5249   -9.3198   -2.0235 O   0  0  0  0  0  0  0  0  0  0  0  0
   22.0753   -7.3285   -1.8132 O   0  0  0  1  0  0  0  0  0  0  0  0
   19.8435   -9.2358   -2.5868 P   0  0  0  1  0  0  0  0  0  0  0  0
   19.9885   -9.1024   -1.0506 O   0  0  0  0  0  0  0  0  0  0  0  0
   18.9497   -8.2801   -3.2481 O   0  0  0  1  0  0  0  0  0  0  0  0
   19.4001  -10.7187   -2.8509 O   0  0  0  1  0  0  0  0  0  0  0  0
   18.1993  -11.2643   -2.3541 C   0  0  0  1  0  0  0  0  0  0  0  0
   17.8720  -10.6965   -1.5083 H   0  0  0  1  0  0  0  0  0  0  0  0
   18.4374  -12.7083   -1.9316 C   0  0  0  1  0  0  0  0  0  0  0  0
   17.5557  -13.0833   -1.4552 H   0  0  0  1  0  0  0  0  0  0  0  0
   19.5306  -12.7519   -1.0134 O   0  0  0  1  0  0  0  0  0  0  0  0
   19.5314  -11.9551   -0.4779 H   0  0  0  1  0  0  0  0  0  0  0  0
   17.8125  -13.3544   -4.3031 C   0  0  0  1  0  0  0  0  0  0  0  0
   18.2090  -13.8246   -5.1786 H   0  0  0  1  0  0  0  0  0  0  0  0
   16.5374  -13.9193   -3.9945 O   0  0  0  1  0  0  0  0  0  0  0  0
   16.5120  -14.8328   -4.2886 H   0  0  0  1  0  0  0  0  0  0  0  0
   18.7625  -13.5810   -3.1331 C   0  0  0  1  0  0  0  0  0  0  0  0
   19.7591  -13.3616   -3.4550 H   0  0  0  1  0  0  0  0  0  0  0  0
   17.6548  -11.8575   -4.5592 C   0  0  0  1  0  0  0  0  0  0  0  0
   16.9375  -11.7024   -5.3378 H   0  0  0  1  0  0  0  0  0  0  0  0
   18.9773  -11.2784   -4.9733 C   0  0  0  1  0  0  0  0  0  0  0  0
   19.7739  -11.8057   -4.4914 H   0  0  0  1  0  0  0  0  0  0  0  0
   19.0220  -10.2429   -4.7074 H   0  0  0  1  0  0  0  0  0  0  0  0
   19.0837  -11.4226   -6.3864 O   0  0  0  1  0  0  0  0  0  0  0  0
   19.1779  -10.5569   -6.7906 H   0  0  0  1  0  0  0  0  0  0  0  0
   17.2073  -11.2156   -3.3652 O   0  0  0  1  0  0  0  0  0  0  0  0
   18.6799  -14.9509   -2.7374 O   0  0  0  1  0  0  0  0  0  0  0  0
   18.1153  -15.4279   -3.3500 H   0  0  0  1  0  0  0  0  0  0  0  0
  1  2  1  0  0  0  0
  1  3  1  0  0  0  0
  1  4  1  0  0  0  0
  1  5  1  0  0  0  0
  3  7  1  0  0  0  0
  3  8  1  0  0  0  0
  4 10  1  0  0  0  0
  5  6  1  0  0  0  0
  5 12  1  0  0  0  0
  5 14  1  0  0  0  0
  7 16  1  0  0  0  0
  7 18  2  0  0  0  0
  8  9  1  0  0  0  0
  8 19  2  0  0  0  0
 10 11  1  0  0  0  0
 10 12  1  0  0  0  0
 10 21  1  0  0  0  0
 12 13  1  0  0  0  0
 12 24  1  0  0  0  0
 14 15  1  0  0  0  0
 16 17  1  0  0  0  0
 16 26  1  0  0  0  0
 19 20  1  0  0  0  0
 19 26  1  0  0  0  0
 21 22  1  0  0  0  0
 21 23  1  0  0  0  0
 21 27  1  0  0  0  0
 24 25  1  0  0  0  0
 26 28  2  0  0  0  0
 27 29  1  0  0  0  0
 29 30  1  0  0  0  0
 29 31  1  0  0  0  0
 29 32  2  0  0  0  0
 30 33  1  0  0  0  0
 33 34  1  0  0  0  0
 33 35  2  0  0  0  0
 33 36  1  0  0  0  0
 36 37  1  0  0  0  0
 37 38  1  0  0  0  0
 37 39  1  0  0  0  0
 37 56  1  0  0  0  0
 39 40  1  0  0  0  0
 39 41  1  0  0  0  0
 39 47  1  0  0  0  0
 41 42  1  0  0  0  0
 43 44  1  0  0  0  0
 43 45  1  0  0  0  0
 43 47  1  0  0  0  0
 43 49  1  0  0  0  0
 45 46  1  0  0  0  0
 47 48  1  0  0  0  0
 47 57  1  0  0  0  0
 49 50  1  0  0  0  0
 49 51  1  0  0  0  0
 49 56  1  0  0  0  0
 51 52  1  0  0  0  0
 51 53  1  0  0  0  0
 51 54  1  0  0  0  0
 54 55  1  0  0  0  0
 57 58  1  0  0  0  0
M  BCL ATM C_TeTeTeTe H_S N_TrTrTrPi2 O_Te2Te2TeTe C_TeTeTeTe H_S C_TrTrTrPi C_TrTrTrPi H_S C_TeTeTeTe H_S C_TeTeTeTe H_S O_Te2Te2TeTe H_S N_TrTrTrPi2 H_S O_Tr2Tr2TrPi C_TrTrTrPi H_S C_TeTeTeTe H_S H_S O_Te2Te2TeTe H_S C_TrTrTrPi O_Tr2TrTrPi2 O_Tr2Tr2TrPi P_TeTeTeTePi O_Tr2TrTrPi2 O_Te2Te2TeTe O_Tr2Tr2TrPi P_TeTeTeTePi O_Te2Te2TeTe O_Tr2Tr2TrPi O_Tr2TrTrPi2 C_TeTeTeTe H_S C_TeTeTeTe H_S O_Te2Te2TeTe H_S C_TeTeTeTe H_S O_Te2Te2TeTe H_S C_TeTeTeTe H_S C_TeTeTeTe H_S C_TeTeTeTe H_S H_S O_Te2Te2TeTe H_S O_Te2Te2TeTe O_Te2Te2TeTe H_S
M  BCL BND NonConjugatedSingleBond NonConjugatedSingleBond NonConjugatedSingleBondInRing NonConjugatedSingleBondInRing ConjugatedSingleBondInRing ConjugatedSingleBondInRing NonConjugatedSingleBondInRing NonConjugatedSingleBond NonConjugatedSingleBondInRing NonConjugatedSingleBond ConjugatedSingleBondInRing ConjugatedDoubleBond NonConjugatedSingleBond ConjugatedDoubleBondInRing NonConjugatedSingleBond NonConjugatedSingleBondInRing NonConjugatedSingleBond NonConjugatedSingleBond NonConjugatedSingleBond NonConjugatedSingleBond NonConjugatedSingleBond ConjugatedSingleBondInRing NonConjugatedSingleBond ConjugatedSingleBondInRing NonConjugatedSingleBond NonConjugatedSingleBond NonConjugatedSingleBond NonConjugatedSingleBond ConjugatedDoubleBond ConjugatedSingleBond ConjugatedSingleBond ConjugatedSingleBond ConjugatedDoubleBond ConjugatedSingleBond ConjugatedSingleBond ConjugatedDoubleBond ConjugatedSingleBond NonConjugatedSingleBond NonConjugatedSingleBond NonConjugatedSingleBondInRing NonConjugatedSingleBondInRing NonConjugatedSingleBond NonConjugatedSingleBond NonConjugatedSingleBondInRing NonConjugatedSingleBond NonConjugatedSingleBond NonConjugatedSingleBond NonConjugatedSingleBondInRing NonConjugatedSingleBondInRing NonConjugatedSingleBond NonConjugatedSingleBond NonConjugatedSingleBond NonConjugatedSingleBond NonConjugatedSingleBond NonConjugatedSingleBondInRing NonConjugatedSingleBond NonConjugatedSingleBond NonConjugatedSingleBond NonConjugatedSingleBond NonConjugatedSingleBond
M  BCL CHI   1   S   5   S  10   S  12   R  29   S  33   R  37   S  39   R  43   R  47   R  49   S
M  BCL DBI - Z - - -
M  END
> <ConfClashScore>
0.00729569 

> <ConfOneFourInteractionScore>
-0.97642 

> <ConfScore>
0.793353 

> <ConfScorePBest>
0.00490145 

> <ConfTolerance>
3.08073 

$$$$
