# created with PyMOL 2.4.0
@<TRIPOS>MOLECULE
ChEBI.****
58 60 1                 
SMALL
USER_CHARGES
@<TRIPOS>ATOM
1	   C	23.867	-10.156	0.000	C.3	1	UNK0	0.000	
2	   H	23.867	-10.156	-1.090	 H	1	UNK0	0.000	
3	   N	24.657	-9.898	0.000	N.pl3	1	UNK0	0.000	
4	   O	23.224	-9.685	0.000	O.3	1	UNK0	0.000	
5	   C	23.626	-10.963	0.000	C.3	1	UNK0	0.000	
6	   H	23.626	-10.963	-1.090	 H	1	UNK0	0.000	
7	   C	25.276	-10.448	0.000	C.2	1	UNK0	0.000	
8	   C	24.829	-9.090	0.000	C.2	1	UNK0	0.000	
9	   H	24.022	-8.373	0.000	 H	1	UNK0	0.000	
10	   C	22.553	-10.176	0.000	C.3	1	UNK0	0.000	
11	   H	22.553	-10.176	1.090	 H	1	UNK0	0.000	
12	   C	22.798	-10.963	0.000	C.3	1	UNK0	0.000	
13	   H	22.798	-10.963	-1.090	 H	1	UNK0	0.000	
14	   O	24.111	-11.627	0.000	O.3	1	UNK0	0.000	
15	   H	24.922	-11.394	-0.458	 H	1	UNK0	0.000	
16	   N	26.063	-10.187	0.000	N.pl3	1	UNK0	0.000	
17	   H	26.817	-10.859	0.000	 H	1	UNK0	0.000	
18	   O	25.111	-11.252	0.000	O.2	1	UNK0	0.000	
19	   C	25.605	-8.826	0.000	C.2	1	UNK0	0.000	
20	   H	25.817	-7.767	0.000	 H	1	UNK0	0.000	
21	   C	21.767	-9.922	0.000	C.3	1	UNK0	0.000	
22	   H	21.622	-9.309	-0.890	 H	1	UNK0	0.000	
23	   H	21.622	-9.309	0.890	 H	1	UNK0	0.000	
24	   O	22.309	-11.623	0.000	O.3	1	UNK0	0.000	
25	   H	21.500	-11.384	-0.458	 H	1	UNK0	0.000	
26	   C	26.231	-9.379	0.000	C.2	1	UNK0	0.000	
27	   O	21.182	-10.496	0.000	O.3	1	UNK0	0.000	
28	   O	27.015	-9.121	0.000	O.2	1	UNK0	0.000	
29	   P	20.361	-10.496	0.000	 P	1	UNK0	0.000	
30	   O	19.539	-10.496	0.000	O.3	1	UNK0	0.000	
31	   O	20.357	-11.317	0.000	O.2	1	UNK0	0.000	
32	   O	20.357	-9.675	0.000	O.2	1	UNK0	0.000	
33	   P	18.718	-10.493	0.000	 P	1	UNK0	0.000	
34	   O	18.711	-11.314	0.000	O.2	1	UNK0	0.000	
35	   O	18.711	-9.668	0.000	O.2	1	UNK0	0.000	
36	   O	17.893	-10.493	0.000	O.3	1	UNK0	0.000	
37	   C	17.179	-10.905	0.000	C.3	1	UNK0	0.000	
38	   H	17.179	-10.905	1.090	 H	1	UNK0	0.000	
39	   C	17.179	-11.730	0.000	C.3	1	UNK0	0.000	
40	   H	17.179	-11.730	1.090	 H	1	UNK0	0.000	
41	   O	17.893	-12.143	0.000	O.3	1	UNK0	0.000	
42	   H	18.541	-11.602	0.458	 H	1	UNK0	0.000	
43	   C	15.750	-11.730	0.000	C.3	1	UNK0	0.000	
44	   H	15.750	-11.730	-1.090	 H	1	UNK0	0.000	
45	   O	15.035	-12.143	0.000	O.3	1	UNK0	0.000	
46	   H	15.180	-12.974	-0.458	 H	1	UNK0	0.000	
47	   C	16.464	-12.143	0.000	C.3	1	UNK0	0.000	
48	   H	16.464	-12.143	-1.090	 H	1	UNK0	0.000	
49	   C	15.750	-10.905	0.000	C.3	1	UNK0	0.000	
50	   H	15.750	-10.905	1.090	 H	1	UNK0	0.000	
51	   C	15.035	-10.493	0.000	C.3	1	UNK0	0.000	
52	   H	15.035	-9.864	-0.890	 H	1	UNK0	0.000	
53	   H	15.035	-9.864	0.890	 H	1	UNK0	0.000	
54	   O	14.321	-10.905	0.000	O.3	1	UNK0	0.000	
55	   H	14.527	-11.843	-0.000	 H	1	UNK0	0.000	
56	   O	16.464	-10.493	0.000	O.3	1	UNK0	0.000	
57	   O	16.464	-12.968	0.000	O.3	1	UNK0	0.000	
58	   H	17.257	-13.258	-0.458	 H	1	UNK0	0.000	
@<TRIPOS>BOND
1 1 2 1
2 1 3 1
3 1 4 1
4 1 5 1
5 3 7 1
6 3 8 1
7 4 10 1
8 5 6 1
9 5 12 1
10 5 14 1
11 7 16 1
12 7 18 2
13 8 9 1
14 8 19 2
15 10 11 1
16 10 12 1
17 10 21 1
18 12 13 1
19 12 24 1
20 14 15 1
21 16 17 1
22 16 26 1
23 19 20 1
24 19 26 1
25 21 22 1
26 21 23 1
27 21 27 1
28 24 25 1
29 26 28 2
30 27 29 1
31 29 30 1
32 29 31 ar
33 29 32 ar
34 30 33 1
35 33 34 ar
36 33 35 ar
37 33 36 1
38 36 37 1
39 37 38 1
40 37 39 1
41 37 56 1
42 39 40 1
43 39 41 1
44 39 47 1
45 41 42 1
46 43 44 1
47 43 45 1
48 43 47 1
49 43 49 1
50 45 46 1
51 47 48 1
52 47 57 1
53 49 50 1
54 49 51 1
55 49 56 1
56 51 52 1
57 51 53 1
58 51 54 1
59 54 55 1
60 57 58 1
@<TRIPOS>SUBSTRUCTURE
1	UNK0	1	GROUP	1 ****	UNK
