# created with PyMOL 2.5.2
@<TRIPOS>MOLECULE
ChEBI
16 16 1                 
SMALL
USER_CHARGES
@<TRIPOS>ATOM
1	   C	11.886	-7.202	0.000	C.3	1	UNK0	0.000	
2	   O	11.234	-6.826	0.000	O.3	1	UNK0	0.000	
3	   C	11.886	-7.950	0.000	C.3	1	UNK0	0.000	
4	   O	12.537	-6.826	0.000	O.3	1	UNK0	0.000	
5	   C	10.582	-7.202	0.000	C.3	1	UNK0	0.000	
6	   C	11.234	-8.330	0.000	C.3	1	UNK0	0.000	
7	   O	12.537	-8.330	0.000	O.3	1	UNK0	0.000	
8	   P	13.286	-6.826	0.000	P.3	1	UNK0	0.000	
9	   C	10.582	-7.950	0.000	C.3	1	UNK0	0.000	
10	   C	9.941	-6.826	0.000	C.3	1	UNK0	0.000	
11	   O	11.234	-9.078	0.000	O.3	1	UNK0	0.000	
12	   O	14.037	-6.826	0.000	O.co2	1	UNK0	0.000	
13	   O	13.286	-6.078	0.000	O.co2	1	UNK0	0.000	
14	   O	13.286	-7.578	0.000	O.co2	1	UNK0	0.000	
15	   O	9.941	-8.330	0.000	O.3	1	UNK0	0.000	
16	   O	9.375	-7.216	0.000	O.3	1	UNK0	0.000	
@<TRIPOS>BOND
1 1 2 1
2 1 3 1
3 1 4 1
4 2 5 1
5 3 6 1
6 3 7 1
7 4 8 1
8 5 9 1
9 5 10 1
10 6 9 1
11 6 11 1
12 8 12 1
13 8 13 1
14 8 14 2
15 9 15 1
16 10 16 1
@<TRIPOS>SUBSTRUCTURE
1	UNK0	1	GROUP	1 ****	UNK
