# created with PyMOL 2.4.0
@<TRIPOS>MOLECULE
ChEBI.****
27 27 1                 
SMALL
USER_CHARGES
@<TRIPOS>ATOM
1	   C	11.886	-7.202	0.000	C.3	1	UNK0	0.000	
2	   H	11.886	-7.202	-1.090	 H	1	UNK0	0.000	
3	   O	11.234	-6.826	0.000	O.3	1	UNK0	0.000	
4	   C	11.886	-7.950	0.000	C.3	1	UNK0	0.000	
5	   H	11.886	-7.950	-1.090	 H	1	UNK0	0.000	
6	   O	12.537	-6.826	0.000	O.3	1	UNK0	0.000	
7	   C	10.582	-7.202	0.000	C.3	1	UNK0	0.000	
8	   H	10.582	-7.202	1.090	 H	1	UNK0	0.000	
9	   C	11.234	-8.330	0.000	C.3	1	UNK0	0.000	
10	   H	11.234	-8.330	-1.090	 H	1	UNK0	0.000	
11	   O	12.537	-8.330	0.000	O.3	1	UNK0	0.000	
12	   H	13.187	-7.792	0.458	 H	1	UNK0	0.000	
13	   P	13.286	-6.826	0.000	 P	1	UNK0	0.000	
14	   C	10.582	-7.950	0.000	C.3	1	UNK0	0.000	
15	   H	10.582	-7.950	1.090	 H	1	UNK0	0.000	
16	   C	9.941	-6.826	0.000	C.3	1	UNK0	0.000	
17	   H	9.918	-6.197	-0.890	 H	1	UNK0	0.000	
18	   H	9.918	-6.197	0.890	 H	1	UNK0	0.000	
19	   O	11.234	-9.078	0.000	O.3	1	UNK0	0.000	
20	   H	12.026	-9.368	-0.458	 H	1	UNK0	0.000	
21	   O	14.037	-6.826	0.000	O.2	1	UNK0	0.000	
22	   O	13.286	-6.078	0.000	O.2	1	UNK0	0.000	
23	   O	13.286	-7.578	0.000	O.2	1	UNK0	0.000	
24	   O	9.941	-8.330	0.000	O.3	1	UNK0	0.000	
25	   H	9.287	-7.796	0.458	 H	1	UNK0	0.000	
26	   O	9.375	-7.216	0.000	O.3	1	UNK0	0.000	
27	   H	9.655	-8.134	-0.000	 H	1	UNK0	0.000	
@<TRIPOS>BOND
1 1 2 1
2 1 3 1
3 1 4 1
4 1 6 1
5 3 7 1
6 4 5 1
7 4 9 1
8 4 11 1
9 6 13 1
10 7 8 1
11 7 14 1
12 7 16 1
13 9 10 1
14 9 14 1
15 9 19 1
16 11 12 1
17 13 21 ar
18 13 22 ar
19 13 23 ar
20 14 15 1
21 14 24 1
22 16 17 1
23 16 18 1
24 16 26 1
25 19 20 1
26 24 25 1
27 26 27 1
@<TRIPOS>SUBSTRUCTURE
1	UNK0	1	GROUP	1 ****	UNK
