ChEBI.****
  PyMOL2.5          3D                             0

 27 27  0  0  0  0  0  0  0  0999 V2000
   11.8860   -7.2020    0.0000 C   0  0  0  0  0  0  0  0  0  0  0  0
   11.8860   -7.2020   -1.0900 H   0  0  0  0  0  0  0  0  0  0  0  0
   11.2340   -6.8260    0.0000 O   0  0  0  0  0  0  0  0  0  0  0  0
   11.8860   -7.9500    0.0000 C   0  0  0  0  0  0  0  0  0  0  0  0
   11.8860   -7.9500   -1.0900 H   0  0  0  0  0  0  0  0  0  0  0  0
   12.5370   -6.8260    0.0000 O   0  0  0  0  0  0  0  0  0  0  0  0
   10.5820   -7.2020    0.0000 C   0  0  0  0  0  0  0  0  0  0  0  0
   10.5820   -7.2020    1.0900 H   0  0  0  0  0  0  0  0  0  0  0  0
   11.2340   -8.3300    0.0000 C   0  0  0  0  0  0  0  0  0  0  0  0
   11.2340   -8.3300   -1.0900 H   0  0  0  0  0  0  0  0  0  0  0  0
   12.5098   -8.2557    0.2927 O   0  0  0  0  0  0  0  0  0  0  0  0
   12.9547   -7.5750    0.8030 H   0  0  0  0  0  0  0  0  0  0  0  0
   13.0821   -7.1403   -0.4062 P   0  0  0  0  0  0  0  0  0  0  0  0
   10.5820   -7.9500    0.0000 C   0  0  0  0  0  0  0  0  0  0  0  0
   10.5820   -7.9500    1.0900 H   0  0  0  0  0  0  0  0  0  0  0  0
   10.1410   -6.8790   -0.5035 C   0  0  0  0  0  0  0  0  0  0  0  0
   10.7528   -6.6074   -1.3638 H   0  0  0  0  0  0  0  0  0  0  0  0
    9.7216   -5.9776   -0.0568 H   0  0  0  0  0  0  0  0  0  0  0  0
   11.2388   -9.0240    0.2791 O   0  0  0  0  0  0  0  0  0  0  0  0
   12.0326   -9.4596   -0.0398 H   0  0  0  0  0  0  0  0  0  0  0  0
   13.6287   -7.4555   -0.8136 O   0  0  0  0  0  0  0  0  0  0  0  0
   13.3957   -6.4685   -0.5054 O   0  5  0  0  0  0  0  0  0  0  0  0
   13.3386   -7.3365    0.2729 O   0  5  0  0  0  0  0  0  0  0  0  0
   10.0306   -8.3306   -0.3261 O   0  0  0  0  0  0  0  0  0  0  0  0
    9.2010   -7.9369   -0.0460 H   0  0  0  0  0  0  0  0  0  0  0  0
    9.6204   -7.2684   -0.7266 O   0  0  0  0  0  0  0  0  0  0  0  0
    9.6761   -8.1139   -0.2753 H   0  0  0  0  0  0  0  0  0  0  0  0
  1  2  1  0  0  0  0
  1  3  1  0  0  0  0
  1  4  1  0  0  0  0
  1  6  1  0  0  0  0
  3  7  1  0  0  0  0
  4  5  1  0  0  0  0
  4  9  1  0  0  0  0
  4 11  1  0  0  0  0
  6 13  1  0  0  0  0
  7  8  1  0  0  0  0
  7 14  1  0  0  0  0
  7 16  1  0  0  0  0
  9 10  1  0  0  0  0
  9 14  1  0  0  0  0
  9 19  1  0  0  0  0
 11 12  1  0  0  0  0
 14 15  1  0  0  0  0
 14 24  1  0  0  0  0
 16 17  1  0  0  0  0
 16 18  1  0  0  0  0
 16 26  1  0  0  0  0
 19 20  1  0  0  0  0
 24 25  1  0  0  0  0
 26 27  1  0  0  0  0
 13 23  1  0  0  0  0
 13 22  1  0  0  0  0
 13 21  2  0  0  0  0
M  END
$$$$
