# created with PyMOL 2.5.2
@<TRIPOS>MOLECULE
ChEBI
31 33 1                 
SMALL
USER_CHARGES
@<TRIPOS>ATOM
1	   N	2.217	0.934	0.000	N.pl3	1	UNK0	0.000	
2	   C	1.741	-0.321	0.000	C.3	1	UNK0	0.000	
3	   C	1.503	1.169	0.000	C.2	1	UNK0	0.000	
4	   C	2.655	1.545	0.000	C.2	1	UNK0	0.000	
5	   C	1.514	-1.024	0.000	C.3	1	UNK0	0.000	
6	   O	1.121	0.128	0.000	O.3	1	UNK0	0.000	
7	   C	1.507	1.917	0.000	C.2	1	UNK0	0.000	
8	   N	0.845	0.793	0.000	N.2	1	UNK0	0.000	
9	   N	2.221	2.141	0.000	N.2	1	UNK0	0.000	
10	   C	0.752	-1.024	0.000	C.3	1	UNK0	0.000	
11	   O	1.959	-1.628	0.000	O.3	1	UNK0	0.000	
12	   C	0.514	-0.310	0.000	C.3	1	UNK0	0.000	
13	   C	0.855	2.303	0.000	C.2	1	UNK0	0.000	
14	   C	0.210	1.203	0.000	C.2	1	UNK0	0.000	
15	   O	0.321	-1.635	0.000	O.3	1	UNK0	0.000	
16	   C	-0.200	-0.090	0.000	C.3	1	UNK0	0.000	
17	   N	0.197	1.928	0.000	N.2	1	UNK0	0.000	
18	   N	0.859	3.052	0.000	N.pl3	1	UNK0	0.000	
19	   P	0.321	-2.383	0.000	P.3	1	UNK0	0.000	
20	   O	-0.952	-0.090	0.000	O.3	1	UNK0	0.000	
21	   O	0.321	-3.135	0.000	O.co2	1	UNK0	0.000	
22	   O	1.069	-2.383	0.000	O.co2	1	UNK0	0.000	
23	   O	-0.431	-2.383	0.000	O.co2	1	UNK0	0.000	
24	   P	-1.700	-0.090	0.000	P.3	1	UNK0	0.000	
25	   O	-2.452	-0.090	0.000	O.3	1	UNK0	0.000	
26	   O	-1.700	-0.838	0.000	O.co2	1	UNK0	0.000	
27	   O	-1.700	0.662	0.000	O.co2	1	UNK0	0.000	
28	   S	-3.200	-0.090	0.000	S.3	1	UNK0	0.000	
29	   O	-3.200	-0.838	0.000	O.3	1	UNK0	0.000	
30	   O	-3.952	-0.090	0.000	O.2	1	UNK0	0.000	
31	   O	-3.200	0.662	0.000	O.2	1	UNK0	0.000	
@<TRIPOS>BOND
1 1 3 1
2 1 4 1
3 1 2 1
4 2 5 1
5 2 6 1
6 3 7 2
7 3 8 1
8 4 9 2
9 5 10 1
10 5 11 1
11 6 12 1
12 7 9 1
13 7 13 1
14 8 14 2
15 10 12 1
16 10 15 1
17 12 16 1
18 13 17 2
19 13 18 1
20 14 17 1
21 15 19 1
22 16 20 1
23 19 21 1
24 19 22 1
25 19 23 2
26 20 24 1
27 24 25 1
28 24 26 1
29 24 27 2
30 25 28 1
31 28 29 1
32 28 30 2
33 28 31 2
@<TRIPOS>SUBSTRUCTURE
1	UNK0	1	GROUP	1 ****	UNK
