# created with PyMOL 2.4.0
@<TRIPOS>MOLECULE
ChEBI.****
43 45 1                 
SMALL
USER_CHARGES
@<TRIPOS>ATOM
1	   N	2.217	0.934	0.000	N.pl3	1	UNK0	0.000	
2	   C	1.741	-0.321	0.000	C.3	1	UNK0	0.000	
3	   H	1.741	-0.321	1.090	 H	1	UNK0	0.000	
4	   C	1.503	1.169	0.000	C.2	1	UNK0	0.000	
5	   C	2.655	1.545	0.000	C.2	1	UNK0	0.000	
6	   H	3.735	1.549	0.000	 H	1	UNK0	0.000	
7	   C	1.514	-1.024	0.000	C.3	1	UNK0	0.000	
8	   H	1.514	-1.024	-1.090	 H	1	UNK0	0.000	
9	   O	1.121	0.128	0.000	O.3	1	UNK0	0.000	
10	   C	1.507	1.917	0.000	C.2	1	UNK0	0.000	
11	   N	0.845	0.793	0.000	N.2	1	UNK0	0.000	
12	   N	2.221	2.141	0.000	N.2	1	UNK0	0.000	
13	   C	0.752	-1.024	0.000	C.3	1	UNK0	0.000	
14	   H	0.752	-1.024	-1.090	 H	1	UNK0	0.000	
15	   O	1.959	-1.628	0.000	O.3	1	UNK0	0.000	
16	   H	1.493	-2.332	0.458	 H	1	UNK0	0.000	
17	   C	0.514	-0.310	0.000	C.3	1	UNK0	0.000	
18	   H	0.514	-0.310	1.090	 H	1	UNK0	0.000	
19	   C	0.855	2.303	0.000	C.2	1	UNK0	0.000	
20	   C	0.210	1.203	0.000	C.2	1	UNK0	0.000	
21	   H	-0.734	0.678	0.000	 H	1	UNK0	0.000	
22	   O	0.321	-1.635	0.000	O.3	1	UNK0	0.000	
23	   C	-0.200	-0.090	0.000	C.3	1	UNK0	0.000	
24	   H	-0.106	0.532	-0.890	 H	1	UNK0	0.000	
25	   H	-0.106	0.532	0.890	 H	1	UNK0	0.000	
26	   N	0.197	1.928	0.000	N.2	1	UNK0	0.000	
27	   N	0.859	3.052	0.000	N.pl3	1	UNK0	0.000	
28	   H	-0.013	3.562	0.000	 H	1	UNK0	0.000	
29	   H	1.736	3.552	0.000	 H	1	UNK0	0.000	
30	   P	0.321	-2.383	0.000	 P	1	UNK0	0.000	
31	   O	-0.952	-0.090	0.000	O.3	1	UNK0	0.000	
32	   O	0.321	-3.135	0.000	O.2	1	UNK0	0.000	
33	   O	1.069	-2.383	0.000	O.2	1	UNK0	0.000	
34	   O	-0.431	-2.383	0.000	O.2	1	UNK0	0.000	
35	   P	-1.700	-0.090	0.000	 P	1	UNK0	0.000	
36	   O	-2.452	-0.090	0.000	O.3	1	UNK0	0.000	
37	   O	-1.700	-0.838	0.000	O.2	1	UNK0	0.000	
38	   O	-1.700	0.662	0.000	O.2	1	UNK0	0.000	
39	   S	-3.200	-0.090	0.000	S.3	1	UNK0	0.000	
40	   O	-3.200	-0.838	0.000	O.3	1	UNK0	0.000	
41	   H	-2.963	-1.128	-0.884	 H	1	UNK0	0.000	
42	   O	-3.952	-0.090	0.000	O.2	1	UNK0	0.000	
43	   O	-3.200	0.662	0.000	O.2	1	UNK0	0.000	
@<TRIPOS>BOND
1 1 2 1
2 1 4 1
3 1 5 1
4 2 3 1
5 2 7 1
6 2 9 1
7 4 10 ar
8 4 11 ar
9 5 6 1
10 5 12 2
11 7 8 1
12 7 13 1
13 7 15 1
14 9 17 1
15 10 12 1
16 10 19 ar
17 11 20 ar
18 13 14 1
19 13 17 1
20 13 22 1
21 15 16 1
22 17 18 1
23 17 23 1
24 19 26 ar
25 19 27 1
26 20 21 1
27 20 26 ar
28 22 30 1
29 23 24 1
30 23 25 1
31 23 31 1
32 27 28 1
33 27 29 1
34 30 32 ar
35 30 33 ar
36 30 34 ar
37 31 35 1
38 35 36 1
39 35 37 ar
40 35 38 ar
41 36 39 1
42 39 40 1
43 39 42 2
44 39 43 2
45 40 41 1
@<TRIPOS>SUBSTRUCTURE
1	UNK0	1	GROUP	1 ****	UNK
