ChEBI.****
  PyMOL2.5          3D                             0

 43 45  0  0  0  0  0  0  0  0999 V2000
    1.0463    0.7752    7.1138 N   0  0  0  1  0  0  0  0  0  0  0  0
    0.5445    0.6616    5.7430 C   0  0  0  1  0  0  0  0  0  0  0  0
    0.9782    1.4309    5.1389 H   0  0  0  1  0  0  0  0  0  0  0  0
    0.8362    1.8153    7.9820 C   0  0  0  1  0  0  0  0  0  0  0  0
    1.9045   -0.0684    7.7499 C   0  0  0  1  0  0  0  0  0  0  0  0
    2.2468   -0.9495    7.3161 H   0  0  0  1  0  0  0  0  0  0  0  0
   -0.9644    0.7471    5.7166 C   0  0  0  1  0  0  0  0  0  0  0  0
   -1.3245    1.3902    6.4922 H   0  0  0  1  0  0  0  0  0  0  0  0
    0.8406   -0.6575    5.1916 O   0  0  0  1  0  0  0  0  0  0  0  0
    1.5992    1.5149    9.1184 C   0  0  0  1  0  0  0  0  0  0  0  0
    0.0605    2.8854    7.8029 N   0  0  0  1  0  0  0  0  0  0  0  0
    2.2657    0.3118    8.9452 N   0  0  0  1  0  0  0  0  0  0  0  0
   -1.4095   -0.7020    5.9550 C   0  0  0  1  0  0  0  0  0  0  0  0
   -2.3316   -0.9096    5.4535 H   0  0  0  1  0  0  0  0  0  0  0  0
   -1.4229    1.2175    4.4611 O   0  0  0  1  0  0  0  0  0  0  0  0
   -0.7182    1.1416    3.8136 H   0  0  0  1  0  0  0  0  0  0  0  0
   -0.2545   -1.5150    5.3494 C   0  0  0  1  0  0  0  0  0  0  0  0
   -0.5471   -1.9091    4.3986 H   0  0  0  1  0  0  0  0  0  0  0  0
    1.5242    2.4424   10.1533 C   0  0  0  1  0  0  0  0  0  0  0  0
    0.0895    3.6861    8.8612 C   0  0  0  1  0  0  0  0  0  0  0  0
   -0.4907    4.5462    8.7905 H   0  0  0  1  0  0  0  0  0  0  0  0
   -1.5560   -0.9771    7.3699 O   0  0  0  1  0  0  0  0  0  0  0  0
    0.1089   -2.6382    6.2640 C   0  0  0  1  0  0  0  0  0  0  0  0
   -0.7652   -3.2028    6.5129 H   0  0  0  1  0  0  0  0  0  0  0  0
    0.5510   -2.2514    7.1583 H   0  0  0  1  0  0  0  0  0  0  0  0
    0.7668    3.5355   10.0104 N   0  0  0  1  0  0  0  0  0  0  0  0
    2.1971    2.2969   11.3377 N   0  0  0  1  0  0  0  0  0  0  0  0
    2.7583    1.5077   11.4887 H   0  0  0  1  0  0  0  0  0  0  0  0
    2.1174    2.9819   12.0340 H   0  0  0  1  0  0  0  0  0  0  0  0
   -2.9528   -1.5961    7.9659 P   0  0  0  1  0  0  0  0  0  0  0  0
    1.0585   -3.4807    5.5695 O   0  0  0  1  0  0  0  0  0  0  0  0
   -4.2233   -0.9265    7.6082 O   0  0  0  1  0  0  0  0  0  0  0  0
   -2.8765   -1.6765    9.5821 O   0  5  0  1  0  0  0  0  0  0  0  0
   -2.9427   -3.1770    7.6122 O   0  5  0  1  0  0  0  0  0  0  0  0
    1.8909   -4.6634    6.2974 P   0  0  0  1  0  0  0  0  0  0  0  0
    0.7196   -5.6871    6.9212 O   0  0  0  1  0  0  0  0  0  0  0  0
    2.6475   -3.9803    7.3759 O   0  0  0  0  0  0  0  0  0  0  0  0
    2.6476   -5.4930    5.3298 O   0  0  0  1  0  0  0  0  0  0  0  0
   -0.6702   -5.5787    7.6463 S   0  0  0  1  0  0  0  0  0  0  0  0
   -0.4255   -6.5526    8.7162 O   0  0  0  1  0  0  0  0  0  0  0  0
   -1.2383   -6.7032    9.2045 H   0  0  0  1  0  0  0  0  0  0  0  0
   -0.8630   -4.3024    8.1866 O   0  0  0  1  0  0  0  0  0  0  0  0
   -1.6054   -6.1326    6.7315 O   0  0  0  1  0  0  0  0  0  0  0  0
  1  2  1  0  0  0  0
  1  4  1  0  0  0  0
  1  5  1  0  0  0  0
  2  3  1  0  0  0  0
  2  7  1  0  0  0  0
  2  9  1  0  0  0  0
  4 10  2  0  0  0  0
  4 11  1  0  0  0  0
  5  6  1  0  0  0  0
  5 12  2  0  0  0  0
  7  8  1  0  0  0  0
  7 13  1  0  0  0  0
  7 15  1  0  0  0  0
  9 17  1  0  0  0  0
 10 12  1  0  0  0  0
 10 19  1  0  0  0  0
 11 20  2  0  0  0  0
 13 14  1  0  0  0  0
 13 17  1  0  0  0  0
 13 22  1  0  0  0  0
 15 16  1  0  0  0  0
 17 18  1  0  0  0  0
 17 23  1  0  0  0  0
 19 26  2  0  0  0  0
 19 27  1  0  0  0  0
 20 21  1  0  0  0  0
 20 26  1  0  0  0  0
 22 30  1  0  0  0  0
 23 24  1  0  0  0  0
 23 25  1  0  0  0  0
 23 31  1  0  0  0  0
 27 28  1  0  0  0  0
 27 29  1  0  0  0  0
 30 32  2  0  0  0  0
 30 33  1  0  0  0  0
 30 34  1  0  0  0  0
 31 35  1  0  0  0  0
 35 36  1  0  0  0  0
 35 37  1  0  0  0  0
 35 38  2  0  0  0  0
 36 39  1  0  0  0  0
 39 40  1  0  0  0  0
 39 42  2  0  0  0  0
 39 43  2  0  0  0  0
 40 41  1  0  0  0  0
M  BCL ATM N_TrTrTrPi2 C_TeTeTeTe H_S C_TrTrTrPi C_TrTrTrPi H_S C_TeTeTeTe H_S O_Te2Te2TeTe C_TrTrTrPi N_Tr2TrTrPi N_Tr2TrTrPi C_TeTeTeTe H_S O_Te2Te2TeTe H_S C_TeTeTeTe H_S C_TrTrTrPi C_TrTrTrPi H_S O_Tr2TrTrPi2 C_TeTeTeTe H_S H_S N_Tr2TrTrPi N_TrTrTrPi2 H_S H_S P_TeTeTeTePi O_Tr2TrTrPi2 O_Tr2Tr2TrPi O_Te2Te2Te2Te O_Te2Te2Te2Te P_TeTeTeTePi O_Tr2TrTrPi2 O_Te2Te2TeTe O_Tr2Tr2TrPi S_TeTeTeTePiPi O_Te2Te2TeTe H_S O_Tr2Tr2TrPi O_Tr2Tr2TrPi
M  BCL BND NonConjugatedSingleBond AromaticSingleBond AromaticSingleBond NonConjugatedSingleBond NonConjugatedSingleBondInRing NonConjugatedSingleBondInRing AromaticDoubleBond AromaticSingleBond NonConjugatedSingleBond AromaticDoubleBond NonConjugatedSingleBond NonConjugatedSingleBondInRing NonConjugatedSingleBond NonConjugatedSingleBondInRing AromaticSingleBond AromaticSingleBond AromaticDoubleBond NonConjugatedSingleBond NonConjugatedSingleBondInRing NonConjugatedSingleBond NonConjugatedSingleBond NonConjugatedSingleBond NonConjugatedSingleBond AromaticDoubleBond ConjugatedSingleBond NonConjugatedSingleBond AromaticSingleBond ConjugatedSingleBond NonConjugatedSingleBond NonConjugatedSingleBond NonConjugatedSingleBond NonConjugatedSingleBond NonConjugatedSingleBond ConjugatedDoubleBond ConjugatedSingleBond ConjugatedSingleBond ConjugatedSingleBond ConjugatedSingleBond ConjugatedSingleBond ConjugatedDoubleBond ConjugatedSingleBond ConjugatedSingleBond ConjugatedDoubleBond ConjugatedDoubleBond NonConjugatedSingleBond
M  BCL CHI   2   R   7   R  13   S  17   S  35   R
M  BCL DBI - - - - - - - -
M  END
> <ConfClashScore>
0 

> <ConfOneFourInteractionScore>
-0.979765 

> <ConfScore>
-0.341657 

> <ConfScorePBest>
0.0150985 

> <ConfTolerance>
0.906372 

$$$$
ChEBI.****
  PyMOL2.5          3D                             0

 43 45  0  0  0  0  0  0  0  0999 V2000
    1.0833    0.7905    7.1110 N   0  0  0  1  0  0  0  0  0  0  0  0
    0.4267    0.6094    5.8137 C   0  0  0  1  0  0  0  0  0  0  0  0
   -0.6282    0.7500    5.9246 H   0  0  0  1  0  0  0  0  0  0  0  0
    0.8584    1.8307    7.9754 C   0  0  0  1  0  0  0  0  0  0  0  0
    1.9329   -0.0515    7.7606 C   0  0  0  1  0  0  0  0  0  0  0  0
    2.2831   -0.9323    7.3326 H   0  0  0  1  0  0  0  0  0  0  0  0
    0.7239   -0.7719    5.2547 C   0  0  0  1  0  0  0  0  0  0  0  0
    0.7860   -1.5026    6.0339 H   0  0  0  1  0  0  0  0  0  0  0  0
    0.9566    1.5272    4.8507 O   0  0  0  1  0  0  0  0  0  0  0  0
    1.6042    1.5320    9.1235 C   0  0  0  1  0  0  0  0  0  0  0  0
    0.0839    2.8996    7.7838 N   0  0  0  1  0  0  0  0  0  0  0  0
    2.2750    0.3298    8.9612 N   0  0  0  1  0  0  0  0  0  0  0  0
    2.0736   -0.5532    4.5922 C   0  0  0  1  0  0  0  0  0  0  0  0
    2.2301   -1.2513    3.7966 H   0  0  0  1  0  0  0  0  0  0  0  0
   -0.2638   -1.1719    4.3036 O   0  0  0  1  0  0  0  0  0  0  0  0
    0.1532   -1.3205    3.4518 H   0  0  0  1  0  0  0  0  0  0  0  0
    1.9614    0.8629    4.0619 C   0  0  0  1  0  0  0  0  0  0  0  0
    1.6703    0.8480    3.0323 H   0  0  0  1  0  0  0  0  0  0  0  0
    1.5118    2.4599   10.1567 C   0  0  0  1  0  0  0  0  0  0  0  0
    0.0954    3.7007    8.8421 C   0  0  0  1  0  0  0  0  0  0  0  0
   -0.4850    4.5600    8.7620 H   0  0  0  1  0  0  0  0  0  0  0  0
    3.1422   -0.6654    5.5457 O   0  0  0  1  0  0  0  0  0  0  0  0
    3.2708    1.5677    4.1994 C   0  0  0  1  0  0  0  0  0  0  0  0
    3.9705    1.1783    3.4898 H   0  0  0  1  0  0  0  0  0  0  0  0
    3.6543    1.4341    5.1894 H   0  0  0  1  0  0  0  0  0  0  0  0
    0.7551    3.5517   10.0016 N   0  0  0  1  0  0  0  0  0  0  0  0
    2.1858    2.2670   11.3273 N   0  0  0  1  0  0  0  0  0  0  0  0
    2.7826    1.4962   11.4279 H   0  0  0  1  0  0  0  0  0  0  0  0
    2.0731    2.8994   12.0675 H   0  0  0  1  0  0  0  0  0  0  0  0
    4.4176   -1.6892    5.4240 P   0  0  0  1  0  0  0  0  0  0  0  0
    3.0418    2.9737    3.9453 O   0  0  0  1  0  0  0  0  0  0  0  0
    4.2142   -3.1387    5.6428 O   0  0  0  1  0  0  0  0  0  0  0  0
    5.5057   -1.2770    6.5512 O   0  5  0  1  0  0  0  0  0  0  0  0
    5.1157   -1.3785    3.9956 O   0  5  0  1  0  0  0  0  0  0  0  0
    4.2746    3.9864    4.0718 P   0  0  0  1  0  0  0  0  0  0  0  0
    5.2093    3.5721    2.8131 O   0  0  0  1  0  0  0  0  0  0  0  0
    5.0242    3.6940    5.3267 O   0  0  0  0  0  0  0  0  0  0  0  0
    3.7605    5.3455    3.8031 O   0  0  0  1  0  0  0  0  0  0  0  0
    6.4848    4.3433    2.3656 S   0  0  0  1  0  0  0  0  0  0  0  0
    6.0553    5.8171    2.5152 O   0  0  0  1  0  0  0  0  0  0  0  0
    5.1026    5.8848    2.4175 H   0  0  0  1  0  0  0  0  0  0  0  0
    7.5477    4.1033    3.1973 O   0  0  0  1  0  0  0  0  0  0  0  0
    6.4362    4.3195    0.9728 O   0  0  0  1  0  0  0  0  0  0  0  0
  1  2  1  0  0  0  0
  1  4  1  0  0  0  0
  1  5  1  0  0  0  0
  2  3  1  0  0  0  0
  2  7  1  0  0  0  0
  2  9  1  0  0  0  0
  4 10  2  0  0  0  0
  4 11  1  0  0  0  0
  5  6  1  0  0  0  0
  5 12  2  0  0  0  0
  7  8  1  0  0  0  0
  7 13  1  0  0  0  0
  7 15  1  0  0  0  0
  9 17  1  0  0  0  0
 10 12  1  0  0  0  0
 10 19  1  0  0  0  0
 11 20  2  0  0  0  0
 13 14  1  0  0  0  0
 13 17  1  0  0  0  0
 13 22  1  0  0  0  0
 15 16  1  0  0  0  0
 17 18  1  0  0  0  0
 17 23  1  0  0  0  0
 19 26  2  0  0  0  0
 19 27  1  0  0  0  0
 20 21  1  0  0  0  0
 20 26  1  0  0  0  0
 22 30  1  0  0  0  0
 23 24  1  0  0  0  0
 23 25  1  0  0  0  0
 23 31  1  0  0  0  0
 27 28  1  0  0  0  0
 27 29  1  0  0  0  0
 30 32  2  0  0  0  0
 30 33  1  0  0  0  0
 30 34  1  0  0  0  0
 31 35  1  0  0  0  0
 35 36  1  0  0  0  0
 35 37  1  0  0  0  0
 35 38  2  0  0  0  0
 36 39  1  0  0  0  0
 39 40  1  0  0  0  0
 39 42  2  0  0  0  0
 39 43  2  0  0  0  0
 40 41  1  0  0  0  0
M  BCL ATM N_TrTrTrPi2 C_TeTeTeTe H_S C_TrTrTrPi C_TrTrTrPi H_S C_TeTeTeTe H_S O_Te2Te2TeTe C_TrTrTrPi N_Tr2TrTrPi N_Tr2TrTrPi C_TeTeTeTe H_S O_Te2Te2TeTe H_S C_TeTeTeTe H_S C_TrTrTrPi C_TrTrTrPi H_S O_Tr2TrTrPi2 C_TeTeTeTe H_S H_S N_Tr2TrTrPi N_TrTrTrPi2 H_S H_S P_TeTeTeTePi O_Tr2TrTrPi2 O_Tr2Tr2TrPi O_Te2Te2Te2Te O_Te2Te2Te2Te P_TeTeTeTePi O_Tr2TrTrPi2 O_Te2Te2TeTe O_Tr2Tr2TrPi S_TeTeTeTePiPi O_Te2Te2TeTe H_S O_Tr2Tr2TrPi O_Tr2Tr2TrPi
M  BCL BND NonConjugatedSingleBond AromaticSingleBond AromaticSingleBond NonConjugatedSingleBond NonConjugatedSingleBondInRing NonConjugatedSingleBondInRing AromaticDoubleBond AromaticSingleBond NonConjugatedSingleBond AromaticDoubleBond NonConjugatedSingleBond NonConjugatedSingleBondInRing NonConjugatedSingleBond NonConjugatedSingleBondInRing AromaticSingleBond AromaticSingleBond AromaticDoubleBond NonConjugatedSingleBond NonConjugatedSingleBondInRing NonConjugatedSingleBond NonConjugatedSingleBond NonConjugatedSingleBond NonConjugatedSingleBond AromaticDoubleBond ConjugatedSingleBond NonConjugatedSingleBond AromaticSingleBond ConjugatedSingleBond NonConjugatedSingleBond NonConjugatedSingleBond NonConjugatedSingleBond NonConjugatedSingleBond NonConjugatedSingleBond ConjugatedDoubleBond ConjugatedSingleBond ConjugatedSingleBond ConjugatedSingleBond ConjugatedSingleBond ConjugatedSingleBond ConjugatedDoubleBond ConjugatedSingleBond ConjugatedSingleBond ConjugatedDoubleBond ConjugatedDoubleBond NonConjugatedSingleBond
M  BCL CHI   2   R   7   R  13   S  17   S  35   R
M  BCL DBI - - - - - - - -
M  END
> <ConfClashScore>
0 

> <ConfOneFourInteractionScore>
-0.98191 

> <ConfScore>
-0.329195 

> <ConfScorePBest>
0.0149955 

> <ConfTolerance>
0.974897 

$$$$
ChEBI.****
  PyMOL2.5          3D                             0

 43 45  0  0  0  0  0  0  0  0999 V2000
    1.0759    0.7903    7.1034 N   0  0  0  1  0  0  0  0  0  0  0  0
    0.4952    0.6225    5.7406 C   0  0  0  1  0  0  0  0  0  0  0  0
    0.8822    1.3802    5.0916 H   0  0  0  1  0  0  0  0  0  0  0  0
    0.8476    1.8207    7.9786 C   0  0  0  1  0  0  0  0  0  0  0  0
    1.9422   -0.0467    7.7373 C   0  0  0  1  0  0  0  0  0  0  0  0
    2.2983   -0.9197    7.2984 H   0  0  0  1  0  0  0  0  0  0  0  0
   -1.0386    0.7019    5.7997 C   0  0  0  1  0  0  0  0  0  0  0  0
   -1.3612    1.3650    6.5751 H   0  0  0  1  0  0  0  0  0  0  0  0
    0.7940   -0.6477    5.2376 O   0  0  0  1  0  0  0  0  0  0  0  0
    1.6089    1.5216    9.1165 C   0  0  0  1  0  0  0  0  0  0  0  0
    0.0585    2.8817    7.8038 N   0  0  0  1  0  0  0  0  0  0  0  0
    2.2922    0.3289    8.9374 N   0  0  0  1  0  0  0  0  0  0  0  0
   -1.4332   -0.7322    6.1057 C   0  0  0  1  0  0  0  0  0  0  0  0
   -2.3905   -0.9657    5.6886 H   0  0  0  1  0  0  0  0  0  0  0  0
   -1.5810    1.1303    4.5497 O   0  0  0  1  0  0  0  0  0  0  0  0
   -1.3830    2.0601    4.4162 H   0  0  0  1  0  0  0  0  0  0  0  0
   -0.3114   -1.5503    5.4196 C   0  0  0  1  0  0  0  0  0  0  0  0
   -0.6480   -1.9190    4.4732 H   0  0  0  1  0  0  0  0  0  0  0  0
    1.5163    2.4400   10.1581 C   0  0  0  1  0  0  0  0  0  0  0  0
    0.0716    3.6744    8.8685 C   0  0  0  1  0  0  0  0  0  0  0  0
   -0.5198    4.5273    8.8015 H   0  0  0  1  0  0  0  0  0  0  0  0
   -1.4559   -0.9740    7.5363 O   0  0  0  1  0  0  0  0  0  0  0  0
    0.0902   -2.6836    6.2752 C   0  0  0  1  0  0  0  0  0  0  0  0
    0.8753   -3.2280    5.7932 H   0  0  0  1  0  0  0  0  0  0  0  0
   -0.7512   -3.3275    6.4249 H   0  0  0  1  0  0  0  0  0  0  0  0
    0.7451    3.5239   10.0199 N   0  0  0  1  0  0  0  0  0  0  0  0
    2.1852    2.2941   11.3448 N   0  0  0  1  0  0  0  0  0  0  0  0
    2.0244    2.9236   12.0785 H   0  0  0  1  0  0  0  0  0  0  0  0
    2.8246    1.5604   11.4599 H   0  0  0  1  0  0  0  0  0  0  0  0
   -2.8427   -1.4155    8.2924 P   0  0  0  1  0  0  0  0  0  0  0  0
    0.5592   -2.2065    7.5582 O   0  0  0  1  0  0  0  0  0  0  0  0
   -4.0084   -0.5153    8.1472 O   0  0  0  1  0  0  0  0  0  0  0  0
   -2.3939   -1.5623    9.8420 O   0  5  0  1  0  0  0  0  0  0  0  0
   -3.0860   -2.9070    7.7088 O   0  5  0  1  0  0  0  0  0  0  0  0
    1.3039   -3.1576    8.5395 P   0  0  0  1  0  0  0  0  0  0  0  0
    0.3109   -4.3799    8.9261 O   0  0  0  1  0  0  0  0  0  0  0  0
    1.5645   -2.4329    9.8634 O   0  0  0  0  0  0  0  0  0  0  0  0
    2.5386   -3.6200    7.8637 O   0  0  0  1  0  0  0  0  0  0  0  0
    0.6028   -5.4529   10.0396 S   0  0  0  1  0  0  0  0  0  0  0  0
    0.0781   -6.6247    9.4074 O   0  0  0  1  0  0  0  0  0  0  0  0
   -0.6903   -6.3889    8.8825 H   0  0  0  1  0  0  0  0  0  0  0  0
    1.9891   -5.5323   10.1842 O   0  0  0  1  0  0  0  0  0  0  0  0
   -0.1329   -5.1627   11.2125 O   0  0  0  1  0  0  0  0  0  0  0  0
  1  2  1  0  0  0  0
  1  4  1  0  0  0  0
  1  5  1  0  0  0  0
  2  3  1  0  0  0  0
  2  7  1  0  0  0  0
  2  9  1  0  0  0  0
  4 10  2  0  0  0  0
  4 11  1  0  0  0  0
  5  6  1  0  0  0  0
  5 12  2  0  0  0  0
  7  8  1  0  0  0  0
  7 13  1  0  0  0  0
  7 15  1  0  0  0  0
  9 17  1  0  0  0  0
 10 12  1  0  0  0  0
 10 19  1  0  0  0  0
 11 20  2  0  0  0  0
 13 14  1  0  0  0  0
 13 17  1  0  0  0  0
 13 22  1  0  0  0  0
 15 16  1  0  0  0  0
 17 18  1  0  0  0  0
 17 23  1  0  0  0  0
 19 26  2  0  0  0  0
 19 27  1  0  0  0  0
 20 21  1  0  0  0  0
 20 26  1  0  0  0  0
 22 30  1  0  0  0  0
 23 24  1  0  0  0  0
 23 25  1  0  0  0  0
 23 31  1  0  0  0  0
 27 28  1  0  0  0  0
 27 29  1  0  0  0  0
 30 32  2  0  0  0  0
 30 33  1  0  0  0  0
 30 34  1  0  0  0  0
 31 35  1  0  0  0  0
 35 36  1  0  0  0  0
 35 37  1  0  0  0  0
 35 38  2  0  0  0  0
 36 39  1  0  0  0  0
 39 40  1  0  0  0  0
 39 42  2  0  0  0  0
 39 43  2  0  0  0  0
 40 41  1  0  0  0  0
M  BCL ATM N_TrTrTrPi2 C_TeTeTeTe H_S C_TrTrTrPi C_TrTrTrPi H_S C_TeTeTeTe H_S O_Te2Te2TeTe C_TrTrTrPi N_Tr2TrTrPi N_Tr2TrTrPi C_TeTeTeTe H_S O_Te2Te2TeTe H_S C_TeTeTeTe H_S C_TrTrTrPi C_TrTrTrPi H_S O_Tr2TrTrPi2 C_TeTeTeTe H_S H_S N_Tr2TrTrPi N_TrTrTrPi2 H_S H_S P_TeTeTeTePi O_Tr2TrTrPi2 O_Tr2Tr2TrPi O_Te2Te2Te2Te O_Te2Te2Te2Te P_TeTeTeTePi O_Tr2TrTrPi2 O_Te2Te2TeTe O_Tr2Tr2TrPi S_TeTeTeTePiPi O_Te2Te2TeTe H_S O_Tr2Tr2TrPi O_Tr2Tr2TrPi
M  BCL BND NonConjugatedSingleBond AromaticSingleBond AromaticSingleBond NonConjugatedSingleBond NonConjugatedSingleBondInRing NonConjugatedSingleBondInRing AromaticDoubleBond AromaticSingleBond NonConjugatedSingleBond AromaticDoubleBond NonConjugatedSingleBond NonConjugatedSingleBondInRing NonConjugatedSingleBond NonConjugatedSingleBondInRing AromaticSingleBond AromaticSingleBond AromaticDoubleBond NonConjugatedSingleBond NonConjugatedSingleBondInRing NonConjugatedSingleBond NonConjugatedSingleBond NonConjugatedSingleBond NonConjugatedSingleBond AromaticDoubleBond ConjugatedSingleBond NonConjugatedSingleBond AromaticSingleBond ConjugatedSingleBond NonConjugatedSingleBond NonConjugatedSingleBond NonConjugatedSingleBond NonConjugatedSingleBond NonConjugatedSingleBond ConjugatedDoubleBond ConjugatedSingleBond ConjugatedSingleBond ConjugatedSingleBond ConjugatedSingleBond ConjugatedSingleBond ConjugatedDoubleBond ConjugatedSingleBond ConjugatedSingleBond ConjugatedDoubleBond ConjugatedDoubleBond NonConjugatedSingleBond
M  BCL CHI   2   R   7   R  13   S  17   S  35   R
M  BCL DBI - - - - - - - -
M  END
> <ConfClashScore>
0 

> <ConfOneFourInteractionScore>
-0.989267 

> <ConfScore>
-0.321493 

> <ConfScorePBest>
0.0148925 

> <ConfTolerance>
0.987058 

$$$$
ChEBI.****
  PyMOL2.5          3D                             0

 43 45  0  0  0  0  0  0  0  0999 V2000
    1.0622    0.7937    7.1148 N   0  0  0  1  0  0  0  0  0  0  0  0
    0.5253    0.5779    5.7799 C   0  0  0  1  0  0  0  0  0  0  0  0
    1.0780    1.1620    5.0739 H   0  0  0  1  0  0  0  0  0  0  0  0
    0.8422    1.8330    7.9816 C   0  0  0  1  0  0  0  0  0  0  0  0
    1.9181   -0.0474    7.7574 C   0  0  0  1  0  0  0  0  0  0  0  0
    2.2664   -0.9273    7.3261 H   0  0  0  1  0  0  0  0  0  0  0  0
   -0.9629    0.9763    5.7411 C   0  0  0  1  0  0  0  0  0  0  0  0
   -1.1791    1.7394    6.4594 H   0  0  0  1  0  0  0  0  0  0  0  0
    0.6075   -0.7716    5.4474 O   0  0  0  1  0  0  0  0  0  0  0  0
    1.5973    1.5346    9.1238 C   0  0  0  1  0  0  0  0  0  0  0  0
    0.0646    2.9007    7.7967 N   0  0  0  1  0  0  0  0  0  0  0  0
    2.2687    0.3336    8.9556 N   0  0  0  1  0  0  0  0  0  0  0  0
   -1.6595   -0.3418    6.1029 C   0  0  0  1  0  0  0  0  0  0  0  0
   -2.6126   -0.4167    5.6223 H   0  0  0  1  0  0  0  0  0  0  0  0
   -1.3455    1.4243    4.4399 O   0  0  0  1  0  0  0  0  0  0  0  0
   -0.5779    1.7774    3.9841 H   0  0  0  1  0  0  0  0  0  0  0  0
   -0.6908   -1.4056    5.5721 C   0  0  0  1  0  0  0  0  0  0  0  0
   -1.0203   -1.7591    4.6174 H   0  0  0  1  0  0  0  0  0  0  0  0
    1.5114    2.4617   10.1583 C   0  0  0  1  0  0  0  0  0  0  0  0
    0.0830    3.7012    8.8553 C   0  0  0  1  0  0  0  0  0  0  0  0
   -0.4993    4.5596    8.7803 H   0  0  0  1  0  0  0  0  0  0  0  0
   -1.8301   -0.4633    7.5383 O   0  0  0  1  0  0  0  0  0  0  0  0
   -0.6126   -2.5505    6.5277 C   0  0  0  1  0  0  0  0  0  0  0  0
   -1.5650   -3.0335    6.5964 H   0  0  0  1  0  0  0  0  0  0  0  0
   -0.3201   -2.1986    7.4949 H   0  0  0  1  0  0  0  0  0  0  0  0
    0.7518    3.5524   10.0097 N   0  0  0  1  0  0  0  0  0  0  0  0
    2.1946    2.2692   11.3236 N   0  0  0  1  0  0  0  0  0  0  0  0
    2.7242    1.4547   11.4522 H   0  0  0  1  0  0  0  0  0  0  0  0
    2.1557    2.9454   12.0318 H   0  0  0  1  0  0  0  0  0  0  0  0
   -3.3272   -0.5272    8.2046 P   0  0  0  1  0  0  0  0  0  0  0  0
    0.3618   -3.4662    6.0283 O   0  0  0  1  0  0  0  0  0  0  0  0
   -4.1910    0.5045    7.5883 O   0  0  0  1  0  0  0  0  0  0  0  0
   -3.2152   -0.2675    9.7998 O   0  5  0  1  0  0  0  0  0  0  0  0
   -3.9621   -1.9960    7.9521 O   0  5  0  1  0  0  0  0  0  0  0  0
    0.8735   -4.8256    6.6829 P   0  0  0  1  0  0  0  0  0  0  0  0
    1.6073   -4.1347    7.9532 O   0  0  0  1  0  0  0  0  0  0  0  0
    1.8810   -5.4854    5.8320 O   0  0  0  0  0  0  0  0  0  0  0  0
   -0.2836   -5.6023    7.1536 O   0  0  0  1  0  0  0  0  0  0  0  0
    1.4876   -4.6471    9.4614 S   0  0  0  1  0  0  0  0  0  0  0  0
    2.8217   -4.6001   10.0197 O   0  0  0  1  0  0  0  0  0  0  0  0
    3.4643   -4.5360    9.3093 H   0  0  0  1  0  0  0  0  0  0  0  0
    0.5934   -3.7433   10.1277 O   0  0  0  1  0  0  0  0  0  0  0  0
    0.9730   -5.9764    9.2828 O   0  0  0  1  0  0  0  0  0  0  0  0
  1  2  1  0  0  0  0
  1  4  1  0  0  0  0
  1  5  1  0  0  0  0
  2  3  1  0  0  0  0
  2  7  1  0  0  0  0
  2  9  1  0  0  0  0
  4 10  2  0  0  0  0
  4 11  1  0  0  0  0
  5  6  1  0  0  0  0
  5 12  2  0  0  0  0
  7  8  1  0  0  0  0
  7 13  1  0  0  0  0
  7 15  1  0  0  0  0
  9 17  1  0  0  0  0
 10 12  1  0  0  0  0
 10 19  1  0  0  0  0
 11 20  2  0  0  0  0
 13 14  1  0  0  0  0
 13 17  1  0  0  0  0
 13 22  1  0  0  0  0
 15 16  1  0  0  0  0
 17 18  1  0  0  0  0
 17 23  1  0  0  0  0
 19 26  2  0  0  0  0
 19 27  1  0  0  0  0
 20 21  1  0  0  0  0
 20 26  1  0  0  0  0
 22 30  1  0  0  0  0
 23 24  1  0  0  0  0
 23 25  1  0  0  0  0
 23 31  1  0  0  0  0
 27 28  1  0  0  0  0
 27 29  1  0  0  0  0
 30 32  2  0  0  0  0
 30 33  1  0  0  0  0
 30 34  1  0  0  0  0
 31 35  1  0  0  0  0
 35 36  1  0  0  0  0
 35 37  1  0  0  0  0
 35 38  2  0  0  0  0
 36 39  1  0  0  0  0
 39 40  1  0  0  0  0
 39 42  2  0  0  0  0
 39 43  2  0  0  0  0
 40 41  1  0  0  0  0
M  BCL ATM N_TrTrTrPi2 C_TeTeTeTe H_S C_TrTrTrPi C_TrTrTrPi H_S C_TeTeTeTe H_S O_Te2Te2TeTe C_TrTrTrPi N_Tr2TrTrPi N_Tr2TrTrPi C_TeTeTeTe H_S O_Te2Te2TeTe H_S C_TeTeTeTe H_S C_TrTrTrPi C_TrTrTrPi H_S O_Tr2TrTrPi2 C_TeTeTeTe H_S H_S N_Tr2TrTrPi N_TrTrTrPi2 H_S H_S P_TeTeTeTePi O_Tr2TrTrPi2 O_Tr2Tr2TrPi O_Te2Te2Te2Te O_Te2Te2Te2Te P_TeTeTeTePi O_Tr2TrTrPi2 O_Te2Te2TeTe O_Tr2Tr2TrPi S_TeTeTeTePiPi O_Te2Te2TeTe H_S O_Tr2Tr2TrPi O_Tr2Tr2TrPi
M  BCL BND NonConjugatedSingleBond AromaticSingleBond AromaticSingleBond NonConjugatedSingleBond NonConjugatedSingleBondInRing NonConjugatedSingleBondInRing AromaticDoubleBond AromaticSingleBond NonConjugatedSingleBond AromaticDoubleBond NonConjugatedSingleBond NonConjugatedSingleBondInRing NonConjugatedSingleBond NonConjugatedSingleBondInRing AromaticSingleBond AromaticSingleBond AromaticDoubleBond NonConjugatedSingleBond NonConjugatedSingleBondInRing NonConjugatedSingleBond NonConjugatedSingleBond NonConjugatedSingleBond NonConjugatedSingleBond AromaticDoubleBond ConjugatedSingleBond NonConjugatedSingleBond AromaticSingleBond ConjugatedSingleBond NonConjugatedSingleBond NonConjugatedSingleBond NonConjugatedSingleBond NonConjugatedSingleBond NonConjugatedSingleBond ConjugatedDoubleBond ConjugatedSingleBond ConjugatedSingleBond ConjugatedSingleBond ConjugatedSingleBond ConjugatedSingleBond ConjugatedDoubleBond ConjugatedSingleBond ConjugatedSingleBond ConjugatedDoubleBond ConjugatedDoubleBond NonConjugatedSingleBond
M  BCL CHI   2   R   7   R  13   S  17   S  35   R
M  BCL DBI - - - - - - - -
M  END
> <ConfClashScore>
0 

> <ConfOneFourInteractionScore>
-0.970669 

> <ConfScore>
-0.318801 

> <ConfScorePBest>
0.0147895 

> <ConfTolerance>
0.910752 

$$$$
ChEBI.****
  PyMOL2.5          3D                             0

 43 45  0  0  0  0  0  0  0  0999 V2000
    1.0306    0.7592    7.1012 N   0  0  0  1  0  0  0  0  0  0  0  0
    0.6135    0.7219    5.6703 C   0  0  0  1  0  0  0  0  0  0  0  0
    1.1977   -0.0059    5.1469 H   0  0  0  1  0  0  0  0  0  0  0  0
    0.8241    1.7913    7.9798 C   0  0  0  1  0  0  0  0  0  0  0  0
    1.9046   -0.0816    7.7190 C   0  0  0  1  0  0  0  0  0  0  0  0
    2.2481   -0.9567    7.2741 H   0  0  0  1  0  0  0  0  0  0  0  0
    0.7820    2.1011    5.0300 C   0  0  0  1  0  0  0  0  0  0  0  0
    0.6466    2.8854    5.7451 H   0  0  0  1  0  0  0  0  0  0  0  0
   -0.7807    0.4119    5.5650 O   0  0  0  1  0  0  0  0  0  0  0  0
    1.6054    1.4892    9.1032 C   0  0  0  1  0  0  0  0  0  0  0  0
    0.0370    2.8561    7.8193 N   0  0  0  1  0  0  0  0  0  0  0  0
    2.2793    0.2930    8.9119 N   0  0  0  1  0  0  0  0  0  0  0  0
   -0.3396    2.0828    4.0019 C   0  0  0  1  0  0  0  0  0  0  0  0
   -0.0070    1.6278    3.0925 H   0  0  0  1  0  0  0  0  0  0  0  0
    2.0622    2.2381    4.4078 O   0  0  0  1  0  0  0  0  0  0  0  0
    2.0084    2.8887    3.7040 H   0  0  0  1  0  0  0  0  0  0  0  0
   -1.4108    1.2878    4.6124 C   0  0  0  1  0  0  0  0  0  0  0  0
   -1.9181    0.7156    3.8640 H   0  0  0  1  0  0  0  0  0  0  0  0
    1.5372    2.4086   10.1457 C   0  0  0  1  0  0  0  0  0  0  0  0
    0.0743    3.6494    8.8829 C   0  0  0  1  0  0  0  0  0  0  0  0
   -0.5140    4.5051    8.8267 H   0  0  0  1  0  0  0  0  0  0  0  0
   -0.8003    3.4315    3.7285 O   0  0  0  1  0  0  0  0  0  0  0  0
   -2.3871    2.1826    5.3025 C   0  0  0  1  0  0  0  0  0  0  0  0
   -2.7487    2.9228    4.6197 H   0  0  0  1  0  0  0  0  0  0  0  0
   -1.9157    2.6637    6.1340 H   0  0  0  1  0  0  0  0  0  0  0  0
    0.7689    3.4962   10.0214 N   0  0  0  1  0  0  0  0  0  0  0  0
    2.1980    2.3507   11.3763 N   0  0  0  1  0  0  0  0  0  0  0  0
    2.0168    3.0269   12.0620 H   0  0  0  1  0  0  0  0  0  0  0  0
    2.8424    1.6338   11.5531 H   0  0  0  1  0  0  0  0  0  0  0  0
   -1.1950    3.9571    2.2260 P   0  0  0  1  0  0  0  0  0  0  0  0
   -3.4767    1.3672    5.7624 O   0  0  0  1  0  0  0  0  0  0  0  0
   -0.0834    3.7171    1.2788 O   0  0  0  1  0  0  0  0  0  0  0  0
   -1.3530    5.5573    2.4227 O   0  5  0  1  0  0  0  0  0  0  0  0
   -2.6330    3.3052    1.8632 O   0  5  0  1  0  0  0  0  0  0  0  0
   -4.6809    1.8699    6.6286 P   0  0  0  1  0  0  0  0  0  0  0  0
   -5.3338    3.0705    5.6585 O   0  0  0  1  0  0  0  0  0  0  0  0
   -4.1610    2.5204    7.8821 O   0  0  0  0  0  0  0  0  0  0  0  0
   -5.5939    0.7059    6.7820 O   0  0  0  1  0  0  0  0  0  0  0  0
   -6.0796    3.1901    4.2979 S   0  0  0  1  0  0  0  0  0  0  0  0
   -4.9462    3.5807    3.3274 O   0  0  0  1  0  0  0  0  0  0  0  0
   -4.1125    3.2319    3.6513 H   0  0  0  1  0  0  0  0  0  0  0  0
   -6.6137    1.9924    3.8988 O   0  0  0  1  0  0  0  0  0  0  0  0
   -6.6767    4.4489    4.3366 O   0  0  0  1  0  0  0  0  0  0  0  0
  1  2  1  0  0  0  0
  1  4  1  0  0  0  0
  1  5  1  0  0  0  0
  2  3  1  0  0  0  0
  2  7  1  0  0  0  0
  2  9  1  0  0  0  0
  4 10  2  0  0  0  0
  4 11  1  0  0  0  0
  5  6  1  0  0  0  0
  5 12  2  0  0  0  0
  7  8  1  0  0  0  0
  7 13  1  0  0  0  0
  7 15  1  0  0  0  0
  9 17  1  0  0  0  0
 10 12  1  0  0  0  0
 10 19  1  0  0  0  0
 11 20  2  0  0  0  0
 13 14  1  0  0  0  0
 13 17  1  0  0  0  0
 13 22  1  0  0  0  0
 15 16  1  0  0  0  0
 17 18  1  0  0  0  0
 17 23  1  0  0  0  0
 19 26  2  0  0  0  0
 19 27  1  0  0  0  0
 20 21  1  0  0  0  0
 20 26  1  0  0  0  0
 22 30  1  0  0  0  0
 23 24  1  0  0  0  0
 23 25  1  0  0  0  0
 23 31  1  0  0  0  0
 27 28  1  0  0  0  0
 27 29  1  0  0  0  0
 30 32  2  0  0  0  0
 30 33  1  0  0  0  0
 30 34  1  0  0  0  0
 31 35  1  0  0  0  0
 35 36  1  0  0  0  0
 35 37  1  0  0  0  0
 35 38  2  0  0  0  0
 36 39  1  0  0  0  0
 39 40  1  0  0  0  0
 39 42  2  0  0  0  0
 39 43  2  0  0  0  0
 40 41  1  0  0  0  0
M  BCL ATM N_TrTrTrPi2 C_TeTeTeTe H_S C_TrTrTrPi C_TrTrTrPi H_S C_TeTeTeTe H_S O_Te2Te2TeTe C_TrTrTrPi N_Tr2TrTrPi N_Tr2TrTrPi C_TeTeTeTe H_S O_Te2Te2TeTe H_S C_TeTeTeTe H_S C_TrTrTrPi C_TrTrTrPi H_S O_Tr2TrTrPi2 C_TeTeTeTe H_S H_S N_Tr2TrTrPi N_TrTrTrPi2 H_S H_S P_TeTeTeTePi O_Tr2TrTrPi2 O_Tr2Tr2TrPi O_Te2Te2Te2Te O_Te2Te2Te2Te P_TeTeTeTePi O_Tr2TrTrPi2 O_Te2Te2TeTe O_Tr2Tr2TrPi S_TeTeTeTePiPi O_Te2Te2TeTe H_S O_Tr2Tr2TrPi O_Tr2Tr2TrPi
M  BCL BND NonConjugatedSingleBond AromaticSingleBond AromaticSingleBond NonConjugatedSingleBond NonConjugatedSingleBondInRing NonConjugatedSingleBondInRing AromaticDoubleBond AromaticSingleBond NonConjugatedSingleBond AromaticDoubleBond NonConjugatedSingleBond NonConjugatedSingleBondInRing NonConjugatedSingleBond NonConjugatedSingleBondInRing AromaticSingleBond AromaticSingleBond AromaticDoubleBond NonConjugatedSingleBond NonConjugatedSingleBondInRing NonConjugatedSingleBond NonConjugatedSingleBond NonConjugatedSingleBond NonConjugatedSingleBond AromaticDoubleBond ConjugatedSingleBond NonConjugatedSingleBond AromaticSingleBond ConjugatedSingleBond NonConjugatedSingleBond NonConjugatedSingleBond NonConjugatedSingleBond NonConjugatedSingleBond NonConjugatedSingleBond ConjugatedDoubleBond ConjugatedSingleBond ConjugatedSingleBond ConjugatedSingleBond ConjugatedSingleBond ConjugatedSingleBond ConjugatedDoubleBond ConjugatedSingleBond ConjugatedSingleBond ConjugatedDoubleBond ConjugatedDoubleBond NonConjugatedSingleBond
M  BCL CHI   2   R   7   R  13   S  17   S  35   R
M  BCL DBI - - - - - - - -
M  END
> <ConfClashScore>
0 

> <ConfOneFourInteractionScore>
-0.979564 

> <ConfScore>
-0.313491 

> <ConfScorePBest>
0.0146865 

> <ConfTolerance>
1.03886 

$$$$
ChEBI.****
  PyMOL2.5          3D                             0

 43 45  0  0  0  0  0  0  0  0999 V2000
    1.0858    0.7991    7.0954 N   0  0  0  1  0  0  0  0  0  0  0  0
    0.4487    0.5838    5.7947 C   0  0  0  1  0  0  0  0  0  0  0  0
   -0.6116    0.5185    5.9228 H   0  0  0  1  0  0  0  0  0  0  0  0
    0.8572    1.8285    7.9716 C   0  0  0  1  0  0  0  0  0  0  0  0
    1.9449   -0.0432    7.7321 C   0  0  0  1  0  0  0  0  0  0  0  0
    2.2997   -0.9167    7.2933 H   0  0  0  1  0  0  0  0  0  0  0  0
    0.9863   -0.6656    5.1356 C   0  0  0  1  0  0  0  0  0  0  0  0
    1.2428   -1.4035    5.8668 H   0  0  0  1  0  0  0  0  0  0  0  0
    0.7922    1.6574    4.8667 O   0  0  0  1  0  0  0  0  0  0  0  0
    1.6108    1.5235    9.1130 C   0  0  0  1  0  0  0  0  0  0  0  0
    0.0737    2.8933    7.7949 N   0  0  0  1  0  0  0  0  0  0  0  0
    2.2899    0.3282    8.9350 N   0  0  0  1  0  0  0  0  0  0  0  0
    2.2356   -0.1706    4.3947 C   0  0  0  1  0  0  0  0  0  0  0  0
    2.4050   -0.7373    3.5030 H   0  0  0  1  0  0  0  0  0  0  0  0
    0.0335   -1.2109    4.2218 O   0  0  0  1  0  0  0  0  0  0  0  0
   -0.7475   -1.4929    4.7035 H   0  0  0  1  0  0  0  0  0  0  0  0
    1.8782    1.2873    4.0648 C   0  0  0  1  0  0  0  0  0  0  0  0
    1.6122    1.3713    3.0318 H   0  0  0  1  0  0  0  0  0  0  0  0
    1.5163    2.4398   10.1563 C   0  0  0  1  0  0  0  0  0  0  0  0
    0.0843    3.6835    8.8614 C   0  0  0  1  0  0  0  0  0  0  0  0
   -0.5030    4.5391    8.7931 H   0  0  0  1  0  0  0  0  0  0  0  0
    3.3907   -0.2406    5.2303 O   0  0  0  1  0  0  0  0  0  0  0  0
    3.0613    2.1848    4.3563 C   0  0  0  1  0  0  0  0  0  0  0  0
    3.9078    1.8878    3.7730 H   0  0  0  1  0  0  0  0  0  0  0  0
    3.3124    2.1457    5.3957 H   0  0  0  1  0  0  0  0  0  0  0  0
    0.7507    3.5274   10.0162 N   0  0  0  1  0  0  0  0  0  0  0  0
    2.1780    2.2884   11.3463 N   0  0  0  1  0  0  0  0  0  0  0  0
    2.1050    2.9780   12.0387 H   0  0  0  1  0  0  0  0  0  0  0  0
    2.7242    1.4904   11.5051 H   0  0  0  1  0  0  0  0  0  0  0  0
    4.7910   -1.0542    4.9715 P   0  0  0  1  0  0  0  0  0  0  0  0
    2.6384    3.5190    3.9891 O   0  0  0  1  0  0  0  0  0  0  0  0
    4.7398   -2.5317    4.9016 O   0  0  0  1  0  0  0  0  0  0  0  0
    5.7229   -0.6904    6.2457 O   0  5  0  1  0  0  0  0  0  0  0  0
    5.5961   -0.3898    3.7326 O   0  5  0  1  0  0  0  0  0  0  0  0
    3.4812    4.8013    4.4440 P   0  0  0  1  0  0  0  0  0  0  0  0
    2.5075    6.0759    3.9580 O   0  0  0  1  0  0  0  0  0  0  0  0
    4.7496    4.8581    3.6632 O   0  0  0  0  0  0  0  0  0  0  0  0
    3.5072    4.8126    5.9215 O   0  0  0  1  0  0  0  0  0  0  0  0
    1.0805    6.2943    3.3642 S   0  0  0  1  0  0  0  0  0  0  0  0
    0.6243    7.5855    3.8040 O   0  0  0  1  0  0  0  0  0  0  0  0
    1.3723    8.1833    3.8727 H   0  0  0  1  0  0  0  0  0  0  0  0
    1.1578    6.2768    1.9390 O   0  0  0  1  0  0  0  0  0  0  0  0
    0.3281    5.2293    3.9353 O   0  0  0  1  0  0  0  0  0  0  0  0
  1  2  1  0  0  0  0
  1  4  1  0  0  0  0
  1  5  1  0  0  0  0
  2  3  1  0  0  0  0
  2  7  1  0  0  0  0
  2  9  1  0  0  0  0
  4 10  2  0  0  0  0
  4 11  1  0  0  0  0
  5  6  1  0  0  0  0
  5 12  2  0  0  0  0
  7  8  1  0  0  0  0
  7 13  1  0  0  0  0
  7 15  1  0  0  0  0
  9 17  1  0  0  0  0
 10 12  1  0  0  0  0
 10 19  1  0  0  0  0
 11 20  2  0  0  0  0
 13 14  1  0  0  0  0
 13 17  1  0  0  0  0
 13 22  1  0  0  0  0
 15 16  1  0  0  0  0
 17 18  1  0  0  0  0
 17 23  1  0  0  0  0
 19 26  2  0  0  0  0
 19 27  1  0  0  0  0
 20 21  1  0  0  0  0
 20 26  1  0  0  0  0
 22 30  1  0  0  0  0
 23 24  1  0  0  0  0
 23 25  1  0  0  0  0
 23 31  1  0  0  0  0
 27 28  1  0  0  0  0
 27 29  1  0  0  0  0
 30 32  2  0  0  0  0
 30 33  1  0  0  0  0
 30 34  1  0  0  0  0
 31 35  1  0  0  0  0
 35 36  1  0  0  0  0
 35 37  1  0  0  0  0
 35 38  2  0  0  0  0
 36 39  1  0  0  0  0
 39 40  1  0  0  0  0
 39 42  2  0  0  0  0
 39 43  2  0  0  0  0
 40 41  1  0  0  0  0
M  BCL ATM N_TrTrTrPi2 C_TeTeTeTe H_S C_TrTrTrPi C_TrTrTrPi H_S C_TeTeTeTe H_S O_Te2Te2TeTe C_TrTrTrPi N_Tr2TrTrPi N_Tr2TrTrPi C_TeTeTeTe H_S O_Te2Te2TeTe H_S C_TeTeTeTe H_S C_TrTrTrPi C_TrTrTrPi H_S O_Tr2TrTrPi2 C_TeTeTeTe H_S H_S N_Tr2TrTrPi N_TrTrTrPi2 H_S H_S P_TeTeTeTePi O_Tr2TrTrPi2 O_Tr2Tr2TrPi O_Te2Te2Te2Te O_Te2Te2Te2Te P_TeTeTeTePi O_Tr2TrTrPi2 O_Te2Te2TeTe O_Tr2Tr2TrPi S_TeTeTeTePiPi O_Te2Te2TeTe H_S O_Tr2Tr2TrPi O_Tr2Tr2TrPi
M  BCL BND NonConjugatedSingleBond AromaticSingleBond AromaticSingleBond NonConjugatedSingleBond NonConjugatedSingleBondInRing NonConjugatedSingleBondInRing AromaticDoubleBond AromaticSingleBond NonConjugatedSingleBond AromaticDoubleBond NonConjugatedSingleBond NonConjugatedSingleBondInRing NonConjugatedSingleBond NonConjugatedSingleBondInRing AromaticSingleBond AromaticSingleBond AromaticDoubleBond NonConjugatedSingleBond NonConjugatedSingleBondInRing NonConjugatedSingleBond NonConjugatedSingleBond NonConjugatedSingleBond NonConjugatedSingleBond AromaticDoubleBond ConjugatedSingleBond NonConjugatedSingleBond AromaticSingleBond ConjugatedSingleBond NonConjugatedSingleBond NonConjugatedSingleBond NonConjugatedSingleBond NonConjugatedSingleBond NonConjugatedSingleBond ConjugatedDoubleBond ConjugatedSingleBond ConjugatedSingleBond ConjugatedSingleBond ConjugatedSingleBond ConjugatedSingleBond ConjugatedDoubleBond ConjugatedSingleBond ConjugatedSingleBond ConjugatedDoubleBond ConjugatedDoubleBond NonConjugatedSingleBond
M  BCL CHI   2   R   7   R  13   S  17   S  35   R
M  BCL DBI - - - - - - - -
M  END
> <ConfClashScore>
0 

> <ConfOneFourInteractionScore>
-0.977702 

> <ConfScore>
-0.312595 

> <ConfScorePBest>
0.0145835 

> <ConfTolerance>
0.927562 

$$$$
ChEBI.****
  PyMOL2.5          3D                             0

 43 45  0  0  0  0  0  0  0  0999 V2000
    1.0642    0.7706    7.0949 N   0  0  0  1  0  0  0  0  0  0  0  0
    0.4347    0.7111    5.7705 C   0  0  0  1  0  0  0  0  0  0  0  0
    0.8835    1.4400    5.1286 H   0  0  0  1  0  0  0  0  0  0  0  0
    0.8532    1.8062    7.9682 C   0  0  0  1  0  0  0  0  0  0  0  0
    1.9176   -0.0789    7.7297 C   0  0  0  1  0  0  0  0  0  0  0  0
    2.2594   -0.9584    7.2923 H   0  0  0  1  0  0  0  0  0  0  0  0
   -1.0776    0.9594    5.8860 C   0  0  0  1  0  0  0  0  0  0  0  0
   -1.2984    1.6305    6.6896 H   0  0  0  1  0  0  0  0  0  0  0  0
    0.5722   -0.5688    5.2238 O   0  0  0  1  0  0  0  0  0  0  0  0
    1.6107    1.4973    9.1060 C   0  0  0  1  0  0  0  0  0  0  0  0
    0.0810    2.8793    7.7920 N   0  0  0  1  0  0  0  0  0  0  0  0
    2.2747    0.2935    8.9287 N   0  0  0  1  0  0  0  0  0  0  0  0
   -1.6212   -0.4302    6.1676 C   0  0  0  1  0  0  0  0  0  0  0  0
   -2.6117   -0.5426    5.7787 H   0  0  0  1  0  0  0  0  0  0  0  0
   -1.6083    1.4834    4.6679 O   0  0  0  1  0  0  0  0  0  0  0  0
   -2.2170    0.8480    4.2840 H   0  0  0  1  0  0  0  0  0  0  0  0
   -0.6215   -1.3474    5.4207 C   0  0  0  1  0  0  0  0  0  0  0  0
   -1.0278   -1.6473    4.4774 H   0  0  0  1  0  0  0  0  0  0  0  0
    1.5336    2.4190   10.1459 C   0  0  0  1  0  0  0  0  0  0  0  0
    0.1077    3.6738    8.8550 C   0  0  0  1  0  0  0  0  0  0  0  0
   -0.4701    4.5358    8.7869 H   0  0  0  1  0  0  0  0  0  0  0  0
   -1.6250   -0.7122    7.5959 O   0  0  0  1  0  0  0  0  0  0  0  0
   -0.3228   -2.5439    6.2312 C   0  0  0  1  0  0  0  0  0  0  0  0
    0.0250   -2.2382    7.1958 H   0  0  0  1  0  0  0  0  0  0  0  0
    0.4364   -3.1191    5.7436 H   0  0  0  1  0  0  0  0  0  0  0  0
    0.7797    3.5148   10.0061 N   0  0  0  1  0  0  0  0  0  0  0  0
    2.1865    2.3170   11.3695 N   0  0  0  1  0  0  0  0  0  0  0  0
    2.7838    1.5600   11.5446 H   0  0  0  1  0  0  0  0  0  0  0  0
    2.0494    3.0021   12.0567 H   0  0  0  1  0  0  0  0  0  0  0  0
   -3.0126   -1.1214    8.3684 P   0  0  0  1  0  0  0  0  0  0  0  0
   -1.5095   -3.3568    6.3881 O   0  0  0  1  0  0  0  0  0  0  0  0
   -4.1729   -0.2237    8.1726 O   0  0  0  1  0  0  0  0  0  0  0  0
   -2.7532   -1.4433    9.9347 O   0  5  0  1  0  0  0  0  0  0  0  0
   -3.4542   -2.5947    7.8597 O   0  5  0  1  0  0  0  0  0  0  0  0
   -1.5701   -4.4947    7.4733 P   0  0  0  1  0  0  0  0  0  0  0  0
   -3.0278   -5.2563    7.1510 O   0  0  0  1  0  0  0  0  0  0  0  0
   -1.6544   -3.8062    8.8261 O   0  0  0  0  0  0  0  0  0  0  0  0
   -0.4534   -5.4819    7.2938 O   0  0  0  1  0  0  0  0  0  0  0  0
   -4.0897   -6.1749    7.9129 S   0  0  0  1  0  0  0  0  0  0  0  0
   -3.5332   -6.4493    9.2231 O   0  0  0  1  0  0  0  0  0  0  0  0
   -3.6363   -5.6766    9.7833 H   0  0  0  1  0  0  0  0  0  0  0  0
   -5.3107   -5.4075    7.9932 O   0  0  0  1  0  0  0  0  0  0  0  0
   -4.1590   -7.3234    7.0528 O   0  0  0  1  0  0  0  0  0  0  0  0
  1  2  1  0  0  0  0
  1  4  1  0  0  0  0
  1  5  1  0  0  0  0
  2  3  1  0  0  0  0
  2  7  1  0  0  0  0
  2  9  1  0  0  0  0
  4 10  2  0  0  0  0
  4 11  1  0  0  0  0
  5  6  1  0  0  0  0
  5 12  2  0  0  0  0
  7  8  1  0  0  0  0
  7 13  1  0  0  0  0
  7 15  1  0  0  0  0
  9 17  1  0  0  0  0
 10 12  1  0  0  0  0
 10 19  1  0  0  0  0
 11 20  2  0  0  0  0
 13 14  1  0  0  0  0
 13 17  1  0  0  0  0
 13 22  1  0  0  0  0
 15 16  1  0  0  0  0
 17 18  1  0  0  0  0
 17 23  1  0  0  0  0
 19 26  2  0  0  0  0
 19 27  1  0  0  0  0
 20 21  1  0  0  0  0
 20 26  1  0  0  0  0
 22 30  1  0  0  0  0
 23 24  1  0  0  0  0
 23 25  1  0  0  0  0
 23 31  1  0  0  0  0
 27 28  1  0  0  0  0
 27 29  1  0  0  0  0
 30 32  2  0  0  0  0
 30 33  1  0  0  0  0
 30 34  1  0  0  0  0
 31 35  1  0  0  0  0
 35 36  1  0  0  0  0
 35 37  1  0  0  0  0
 35 38  2  0  0  0  0
 36 39  1  0  0  0  0
 39 40  1  0  0  0  0
 39 42  2  0  0  0  0
 39 43  2  0  0  0  0
 40 41  1  0  0  0  0
M  BCL ATM N_TrTrTrPi2 C_TeTeTeTe H_S C_TrTrTrPi C_TrTrTrPi H_S C_TeTeTeTe H_S O_Te2Te2TeTe C_TrTrTrPi N_Tr2TrTrPi N_Tr2TrTrPi C_TeTeTeTe H_S O_Te2Te2TeTe H_S C_TeTeTeTe H_S C_TrTrTrPi C_TrTrTrPi H_S O_Tr2TrTrPi2 C_TeTeTeTe H_S H_S N_Tr2TrTrPi N_TrTrTrPi2 H_S H_S P_TeTeTeTePi O_Tr2TrTrPi2 O_Tr2Tr2TrPi O_Te2Te2Te2Te O_Te2Te2Te2Te P_TeTeTeTePi O_Tr2TrTrPi2 O_Te2Te2TeTe O_Tr2Tr2TrPi S_TeTeTeTePiPi O_Te2Te2TeTe H_S O_Tr2Tr2TrPi O_Tr2Tr2TrPi
M  BCL BND NonConjugatedSingleBond AromaticSingleBond AromaticSingleBond NonConjugatedSingleBond NonConjugatedSingleBondInRing NonConjugatedSingleBondInRing AromaticDoubleBond AromaticSingleBond NonConjugatedSingleBond AromaticDoubleBond NonConjugatedSingleBond NonConjugatedSingleBondInRing NonConjugatedSingleBond NonConjugatedSingleBondInRing AromaticSingleBond AromaticSingleBond AromaticDoubleBond NonConjugatedSingleBond NonConjugatedSingleBondInRing NonConjugatedSingleBond NonConjugatedSingleBond NonConjugatedSingleBond NonConjugatedSingleBond AromaticDoubleBond ConjugatedSingleBond NonConjugatedSingleBond AromaticSingleBond ConjugatedSingleBond NonConjugatedSingleBond NonConjugatedSingleBond NonConjugatedSingleBond NonConjugatedSingleBond NonConjugatedSingleBond ConjugatedDoubleBond ConjugatedSingleBond ConjugatedSingleBond ConjugatedSingleBond ConjugatedSingleBond ConjugatedSingleBond ConjugatedDoubleBond ConjugatedSingleBond ConjugatedSingleBond ConjugatedDoubleBond ConjugatedDoubleBond NonConjugatedSingleBond
M  BCL CHI   2   R   7   R  13   S  17   S  35   R
M  BCL DBI - - - - - - - -
M  END
> <ConfClashScore>
0 

> <ConfOneFourInteractionScore>
-0.979765 

> <ConfScore>
-0.311751 

> <ConfScorePBest>
0.0144805 

> <ConfTolerance>
0.98904 

$$$$
ChEBI.****
  PyMOL2.5          3D                             0

 43 45  0  0  0  0  0  0  0  0999 V2000
    1.0715    0.7891    7.1017 N   0  0  0  1  0  0  0  0  0  0  0  0
    0.5071    0.6268    5.7786 C   0  0  0  1  0  0  0  0  0  0  0  0
   -0.5194    0.3364    5.8613 H   0  0  0  1  0  0  0  0  0  0  0  0
    0.8463    1.8209    7.9760 C   0  0  0  1  0  0  0  0  0  0  0  0
    1.9353   -0.0499    7.7362 C   0  0  0  1  0  0  0  0  0  0  0  0
    2.2889   -0.9244    7.2981 H   0  0  0  1  0  0  0  0  0  0  0  0
    1.2948   -0.4197    4.9880 C   0  0  0  1  0  0  0  0  0  0  0  0
    2.3230   -0.4431    5.2833 H   0  0  0  1  0  0  0  0  0  0  0  0
    0.6225    1.8448    5.0341 O   0  0  0  1  0  0  0  0  0  0  0  0
    1.6068    1.5205    9.1141 C   0  0  0  1  0  0  0  0  0  0  0  0
    0.0604    2.8841    7.8004 N   0  0  0  1  0  0  0  0  0  0  0  0
    2.2865    0.3257    8.9360 N   0  0  0  1  0  0  0  0  0  0  0  0
    1.1330    0.1059    3.5692 C   0  0  0  1  0  0  0  0  0  0  0  0
    0.2257   -0.2596    3.1354 H   0  0  0  1  0  0  0  0  0  0  0  0
    0.7274   -1.7225    5.1324 O   0  0  0  1  0  0  0  0  0  0  0  0
   -0.2220   -1.6470    5.2523 H   0  0  0  1  0  0  0  0  0  0  0  0
    1.0877    1.5663    3.7007 C   0  0  0  1  0  0  0  0  0  0  0  0
    0.4137    1.9810    2.9806 H   0  0  0  1  0  0  0  0  0  0  0  0
    1.5169    2.4400   10.1550 C   0  0  0  1  0  0  0  0  0  0  0  0
    0.0759    3.6776    8.8644 C   0  0  0  1  0  0  0  0  0  0  0  0
   -0.5130    4.5322    8.7967 H   0  0  0  1  0  0  0  0  0  0  0  0
    2.2537   -0.2937    2.7509 O   0  0  0  1  0  0  0  0  0  0  0  0
    2.4499    2.1441    3.4992 C   0  0  0  1  0  0  0  0  0  0  0  0
    3.1516    1.6562    4.1430 H   0  0  0  1  0  0  0  0  0  0  0  0
    2.4366    3.1922    3.7144 H   0  0  0  1  0  0  0  0  0  0  0  0
    0.7490    3.5260   10.0159 N   0  0  0  1  0  0  0  0  0  0  0  0
    2.1855    2.2931   11.3417 N   0  0  0  1  0  0  0  0  0  0  0  0
    2.0823    2.9641   12.0485 H   0  0  0  1  0  0  0  0  0  0  0  0
    2.7669    1.5172   11.4838 H   0  0  0  1  0  0  0  0  0  0  0  0
    2.0908   -1.1597    1.3678 P   0  0  0  1  0  0  0  0  0  0  0  0
    2.8180    1.9296    2.1163 O   0  0  0  1  0  0  0  0  0  0  0  0
    0.7322   -1.7347    1.4875 O   0  0  0  1  0  0  0  0  0  0  0  0
    3.3476   -2.1686    1.2039 O   0  5  0  1  0  0  0  0  0  0  0  0
    2.2316   -0.0746    0.1732 O   0  5  0  1  0  0  0  0  0  0  0  0
    4.3168    2.1039    1.5699 P   0  0  0  1  0  0  0  0  0  0  0  0
    4.1226    1.7134   -0.0484 O   0  0  0  1  0  0  0  0  0  0  0  0
    5.1913    1.1202    2.2585 O   0  0  0  0  0  0  0  0  0  0  0  0
    4.6794    3.5208    1.6196 O   0  0  0  1  0  0  0  0  0  0  0  0
    3.4003    2.3505   -1.4020 S   0  0  0  1  0  0  0  0  0  0  0  0
    2.6497    1.1246   -1.7958 O   0  0  0  1  0  0  0  0  0  0  0  0
    1.7896    1.1245   -1.3693 H   0  0  0  1  0  0  0  0  0  0  0  0
    2.6780    3.4174   -1.0171 O   0  0  0  1  0  0  0  0  0  0  0  0
    4.4926    2.4285   -2.3059 O   0  0  0  1  0  0  0  0  0  0  0  0
  1  2  1  0  0  0  0
  1  4  1  0  0  0  0
  1  5  1  0  0  0  0
  2  3  1  0  0  0  0
  2  7  1  0  0  0  0
  2  9  1  0  0  0  0
  4 10  2  0  0  0  0
  4 11  1  0  0  0  0
  5  6  1  0  0  0  0
  5 12  2  0  0  0  0
  7  8  1  0  0  0  0
  7 13  1  0  0  0  0
  7 15  1  0  0  0  0
  9 17  1  0  0  0  0
 10 12  1  0  0  0  0
 10 19  1  0  0  0  0
 11 20  2  0  0  0  0
 13 14  1  0  0  0  0
 13 17  1  0  0  0  0
 13 22  1  0  0  0  0
 15 16  1  0  0  0  0
 17 18  1  0  0  0  0
 17 23  1  0  0  0  0
 19 26  2  0  0  0  0
 19 27  1  0  0  0  0
 20 21  1  0  0  0  0
 20 26  1  0  0  0  0
 22 30  1  0  0  0  0
 23 24  1  0  0  0  0
 23 25  1  0  0  0  0
 23 31  1  0  0  0  0
 27 28  1  0  0  0  0
 27 29  1  0  0  0  0
 30 32  2  0  0  0  0
 30 33  1  0  0  0  0
 30 34  1  0  0  0  0
 31 35  1  0  0  0  0
 35 36  1  0  0  0  0
 35 37  1  0  0  0  0
 35 38  2  0  0  0  0
 36 39  1  0  0  0  0
 39 40  1  0  0  0  0
 39 42  2  0  0  0  0
 39 43  2  0  0  0  0
 40 41  1  0  0  0  0
M  BCL ATM N_TrTrTrPi2 C_TeTeTeTe H_S C_TrTrTrPi C_TrTrTrPi H_S C_TeTeTeTe H_S O_Te2Te2TeTe C_TrTrTrPi N_Tr2TrTrPi N_Tr2TrTrPi C_TeTeTeTe H_S O_Te2Te2TeTe H_S C_TeTeTeTe H_S C_TrTrTrPi C_TrTrTrPi H_S O_Tr2TrTrPi2 C_TeTeTeTe H_S H_S N_Tr2TrTrPi N_TrTrTrPi2 H_S H_S P_TeTeTeTePi O_Tr2TrTrPi2 O_Tr2Tr2TrPi O_Te2Te2Te2Te O_Te2Te2Te2Te P_TeTeTeTePi O_Tr2TrTrPi2 O_Te2Te2TeTe O_Tr2Tr2TrPi S_TeTeTeTePiPi O_Te2Te2TeTe H_S O_Tr2Tr2TrPi O_Tr2Tr2TrPi
M  BCL BND NonConjugatedSingleBond AromaticSingleBond AromaticSingleBond NonConjugatedSingleBond NonConjugatedSingleBondInRing NonConjugatedSingleBondInRing AromaticDoubleBond AromaticSingleBond NonConjugatedSingleBond AromaticDoubleBond NonConjugatedSingleBond NonConjugatedSingleBondInRing NonConjugatedSingleBond NonConjugatedSingleBondInRing AromaticSingleBond AromaticSingleBond AromaticDoubleBond NonConjugatedSingleBond NonConjugatedSingleBondInRing NonConjugatedSingleBond NonConjugatedSingleBond NonConjugatedSingleBond NonConjugatedSingleBond AromaticDoubleBond ConjugatedSingleBond NonConjugatedSingleBond AromaticSingleBond ConjugatedSingleBond NonConjugatedSingleBond NonConjugatedSingleBond NonConjugatedSingleBond NonConjugatedSingleBond NonConjugatedSingleBond ConjugatedDoubleBond ConjugatedSingleBond ConjugatedSingleBond ConjugatedSingleBond ConjugatedSingleBond ConjugatedSingleBond ConjugatedDoubleBond ConjugatedSingleBond ConjugatedSingleBond ConjugatedDoubleBond ConjugatedDoubleBond NonConjugatedSingleBond
M  BCL CHI   2   R   7   R  13   S  17   S  35   R
M  BCL DBI - - - - - - - -
M  END
> <ConfClashScore>
0 

> <ConfOneFourInteractionScore>
-0.979714 

> <ConfScore>
-0.311285 

> <ConfScorePBest>
0.0143775 

> <ConfTolerance>
1.07918 

$$$$
ChEBI.****
  PyMOL2.5          3D                             0

 43 45  0  0  0  0  0  0  0  0999 V2000
    1.0349    0.7751    7.1169 N   0  0  0  1  0  0  0  0  0  0  0  0
    0.5851    0.6469    5.7259 C   0  0  0  1  0  0  0  0  0  0  0  0
    1.2127    1.2374    5.0917 H   0  0  0  1  0  0  0  0  0  0  0  0
    0.8292    1.8162    7.9850 C   0  0  0  1  0  0  0  0  0  0  0  0
    1.8940   -0.0692    7.7509 C   0  0  0  1  0  0  0  0  0  0  0  0
    2.2335   -0.9512    7.3167 H   0  0  0  1  0  0  0  0  0  0  0  0
   -0.8794    1.0939    5.5944 C   0  0  0  1  0  0  0  0  0  0  0  0
   -1.1093    1.8731    6.2908 H   0  0  0  1  0  0  0  0  0  0  0  0
    0.6140   -0.6933    5.3270 O   0  0  0  1  0  0  0  0  0  0  0  0
    1.5955    1.5156    9.1191 C   0  0  0  1  0  0  0  0  0  0  0  0
    0.0544    2.8873    7.8076 N   0  0  0  1  0  0  0  0  0  0  0  0
    2.2596    0.3114    8.9447 N   0  0  0  1  0  0  0  0  0  0  0  0
   -1.6444   -0.1764    5.9215 C   0  0  0  1  0  0  0  0  0  0  0  0
   -2.5802   -0.2068    5.4036 H   0  0  0  1  0  0  0  0  0  0  0  0
   -1.1650    1.5404    4.2680 O   0  0  0  1  0  0  0  0  0  0  0  0
   -2.0505    1.2644    4.0206 H   0  0  0  1  0  0  0  0  0  0  0  0
   -0.6922   -1.2894    5.4184 C   0  0  0  1  0  0  0  0  0  0  0  0
   -1.0072   -1.6398    4.4578 H   0  0  0  1  0  0  0  0  0  0  0  0
    1.5251    2.4440   10.1536 C   0  0  0  1  0  0  0  0  0  0  0  0
    0.0881    3.6887    8.8652 C   0  0  0  1  0  0  0  0  0  0  0  0
   -0.4911    4.5497    8.7958 H   0  0  0  1  0  0  0  0  0  0  0  0
   -1.8745   -0.2924    7.3348 O   0  0  0  1  0  0  0  0  0  0  0  0
   -0.6738   -2.4289    6.3833 C   0  0  0  1  0  0  0  0  0  0  0  0
   -1.6696   -2.7855    6.5451 H   0  0  0  1  0  0  0  0  0  0  0  0
   -0.2525   -2.1114    7.3142 H   0  0  0  1  0  0  0  0  0  0  0  0
    0.7689    3.5380   10.0123 N   0  0  0  1  0  0  0  0  0  0  0  0
    2.2017    2.2983   11.3359 N   0  0  0  1  0  0  0  0  0  0  0  0
    2.7798    1.5197   11.4769 H   0  0  0  1  0  0  0  0  0  0  0  0
    2.1075    2.9728   12.0406 H   0  0  0  1  0  0  0  0  0  0  0  0
   -3.3467   -0.3896    8.0507 P   0  0  0  1  0  0  0  0  0  0  0  0
    0.1383   -3.4791    5.8076 O   0  0  0  1  0  0  0  0  0  0  0  0
   -4.4147   -0.7295    7.0841 O   0  0  0  1  0  0  0  0  0  0  0  0
   -3.5790    1.0156    8.8225 O   0  5  0  1  0  0  0  0  0  0  0  0
   -3.1533   -1.5568    9.1573 O   0  5  0  1  0  0  0  0  0  0  0  0
    0.3003   -4.8747    6.5403 P   0  0  0  1  0  0  0  0  0  0  0  0
   -1.2205   -5.4033    6.6785 O   0  0  0  1  0  0  0  0  0  0  0  0
    0.8565   -4.6035    7.8891 O   0  0  0  0  0  0  0  0  0  0  0  0
    0.9862   -5.8444    5.6675 O   0  0  0  1  0  0  0  0  0  0  0  0
   -1.6374   -6.8291    7.2659 S   0  0  0  1  0  0  0  0  0  0  0  0
   -2.7660   -6.5999    8.1413 O   0  0  0  1  0  0  0  0  0  0  0  0
   -3.5792   -6.6385    7.6325 H   0  0  0  1  0  0  0  0  0  0  0  0
   -1.9879   -7.6461    6.1387 O   0  0  0  1  0  0  0  0  0  0  0  0
   -0.4402   -7.2302    7.9467 O   0  0  0  1  0  0  0  0  0  0  0  0
  1  2  1  0  0  0  0
  1  4  1  0  0  0  0
  1  5  1  0  0  0  0
  2  3  1  0  0  0  0
  2  7  1  0  0  0  0
  2  9  1  0  0  0  0
  4 10  2  0  0  0  0
  4 11  1  0  0  0  0
  5  6  1  0  0  0  0
  5 12  2  0  0  0  0
  7  8  1  0  0  0  0
  7 13  1  0  0  0  0
  7 15  1  0  0  0  0
  9 17  1  0  0  0  0
 10 12  1  0  0  0  0
 10 19  1  0  0  0  0
 11 20  2  0  0  0  0
 13 14  1  0  0  0  0
 13 17  1  0  0  0  0
 13 22  1  0  0  0  0
 15 16  1  0  0  0  0
 17 18  1  0  0  0  0
 17 23  1  0  0  0  0
 19 26  2  0  0  0  0
 19 27  1  0  0  0  0
 20 21  1  0  0  0  0
 20 26  1  0  0  0  0
 22 30  1  0  0  0  0
 23 24  1  0  0  0  0
 23 25  1  0  0  0  0
 23 31  1  0  0  0  0
 27 28  1  0  0  0  0
 27 29  1  0  0  0  0
 30 32  2  0  0  0  0
 30 33  1  0  0  0  0
 30 34  1  0  0  0  0
 31 35  1  0  0  0  0
 35 36  1  0  0  0  0
 35 37  1  0  0  0  0
 35 38  2  0  0  0  0
 36 39  1  0  0  0  0
 39 40  1  0  0  0  0
 39 42  2  0  0  0  0
 39 43  2  0  0  0  0
 40 41  1  0  0  0  0
M  BCL ATM N_TrTrTrPi2 C_TeTeTeTe H_S C_TrTrTrPi C_TrTrTrPi H_S C_TeTeTeTe H_S O_Te2Te2TeTe C_TrTrTrPi N_Tr2TrTrPi N_Tr2TrTrPi C_TeTeTeTe H_S O_Te2Te2TeTe H_S C_TeTeTeTe H_S C_TrTrTrPi C_TrTrTrPi H_S O_Tr2TrTrPi2 C_TeTeTeTe H_S H_S N_Tr2TrTrPi N_TrTrTrPi2 H_S H_S P_TeTeTeTePi O_Tr2TrTrPi2 O_Tr2Tr2TrPi O_Te2Te2Te2Te O_Te2Te2Te2Te P_TeTeTeTePi O_Tr2TrTrPi2 O_Te2Te2TeTe O_Tr2Tr2TrPi S_TeTeTeTePiPi O_Te2Te2TeTe H_S O_Tr2Tr2TrPi O_Tr2Tr2TrPi
M  BCL BND NonConjugatedSingleBond AromaticSingleBond AromaticSingleBond NonConjugatedSingleBond NonConjugatedSingleBondInRing NonConjugatedSingleBondInRing AromaticDoubleBond AromaticSingleBond NonConjugatedSingleBond AromaticDoubleBond NonConjugatedSingleBond NonConjugatedSingleBondInRing NonConjugatedSingleBond NonConjugatedSingleBondInRing AromaticSingleBond AromaticSingleBond AromaticDoubleBond NonConjugatedSingleBond NonConjugatedSingleBondInRing NonConjugatedSingleBond NonConjugatedSingleBond NonConjugatedSingleBond NonConjugatedSingleBond AromaticDoubleBond ConjugatedSingleBond NonConjugatedSingleBond AromaticSingleBond ConjugatedSingleBond NonConjugatedSingleBond NonConjugatedSingleBond NonConjugatedSingleBond NonConjugatedSingleBond NonConjugatedSingleBond ConjugatedDoubleBond ConjugatedSingleBond ConjugatedSingleBond ConjugatedSingleBond ConjugatedSingleBond ConjugatedSingleBond ConjugatedDoubleBond ConjugatedSingleBond ConjugatedSingleBond ConjugatedDoubleBond ConjugatedDoubleBond NonConjugatedSingleBond
M  BCL CHI   2   R   7   R  13   S  17   S  35   R
M  BCL DBI - - - - - - - -
M  END
> <ConfClashScore>
0 

> <ConfOneFourInteractionScore>
-0.968807 

> <ConfScore>
-0.308024 

> <ConfScorePBest>
0.0142745 

> <ConfTolerance>
0.984363 

$$$$
ChEBI.****
  PyMOL2.5          3D                             0

 43 45  0  0  0  0  0  0  0  0999 V2000
    1.0861    0.7988    7.0963 N   0  0  0  1  0  0  0  0  0  0  0  0
    0.4440    0.5817    5.7851 C   0  0  0  1  0  0  0  0  0  0  0  0
    0.6834    1.3942    5.1312 H   0  0  0  1  0  0  0  0  0  0  0  0
    0.8577    1.8285    7.9722 C   0  0  0  1  0  0  0  0  0  0  0  0
    1.9449   -0.0435    7.7333 C   0  0  0  1  0  0  0  0  0  0  0  0
    2.2995   -0.9173    7.2948 H   0  0  0  1  0  0  0  0  0  0  0  0
   -1.0769    0.4393    5.9412 C   0  0  0  1  0  0  0  0  0  0  0  0
   -1.3263   -0.0507    6.8591 H   0  0  0  1  0  0  0  0  0  0  0  0
    0.8503   -0.6393    5.2293 O   0  0  0  1  0  0  0  0  0  0  0  0
    1.6110    1.5235    9.1138 C   0  0  0  1  0  0  0  0  0  0  0  0
    0.0745    2.8935    7.7952 N   0  0  0  1  0  0  0  0  0  0  0  0
    2.2898    0.3280    8.9362 N   0  0  0  1  0  0  0  0  0  0  0  0
   -1.4535   -0.4075    4.7539 C   0  0  0  1  0  0  0  0  0  0  0  0
   -1.5977    0.1961    3.8823 H   0  0  0  1  0  0  0  0  0  0  0  0
   -1.7213    1.7130    5.8903 O   0  0  0  1  0  0  0  0  0  0  0  0
   -2.5999    1.6129    5.5167 H   0  0  0  1  0  0  0  0  0  0  0  0
   -0.2440   -1.3323    4.5878 C   0  0  0  1  0  0  0  0  0  0  0  0
   -0.0319   -1.4908    3.5510 H   0  0  0  1  0  0  0  0  0  0  0  0
    1.5167    2.4401   10.1569 C   0  0  0  1  0  0  0  0  0  0  0  0
    0.0852    3.6840    8.8615 C   0  0  0  1  0  0  0  0  0  0  0  0
   -0.5018    4.5397    8.7929 H   0  0  0  1  0  0  0  0  0  0  0  0
   -2.6532   -1.1664    5.0186 O   0  0  0  1  0  0  0  0  0  0  0  0
   -0.4936   -2.6463    5.2520 C   0  0  0  1  0  0  0  0  0  0  0  0
   -1.3381   -3.1266    4.8036 H   0  0  0  1  0  0  0  0  0  0  0  0
   -0.6795   -2.4978    6.2952 H   0  0  0  1  0  0  0  0  0  0  0  0
    0.7514    3.5279   10.0164 N   0  0  0  1  0  0  0  0  0  0  0  0
    2.1781    2.2888   11.3470 N   0  0  0  1  0  0  0  0  0  0  0  0
    2.1124    2.9827   12.0358 H   0  0  0  1  0  0  0  0  0  0  0  0
    2.7170    1.4865   11.5095 H   0  0  0  1  0  0  0  0  0  0  0  0
   -3.7749   -0.7136    6.1261 P   0  0  0  1  0  0  0  0  0  0  0  0
    0.6890   -3.4607    5.0732 O   0  0  0  1  0  0  0  0  0  0  0  0
   -3.1477   -0.6182    7.4632 O   0  0  0  1  0  0  0  0  0  0  0  0
   -4.9246   -1.8547    6.1058 O   0  5  0  1  0  0  0  0  0  0  0  0
   -4.6191    0.5650    5.6000 O   0  5  0  1  0  0  0  0  0  0  0  0
    0.7262   -4.9736    5.5839 P   0  0  0  1  0  0  0  0  0  0  0  0
    2.2710   -5.3533    5.2697 O   0  0  0  1  0  0  0  0  0  0  0  0
   -0.2321   -5.8120    4.7929 O   0  0  0  0  0  0  0  0  0  0  0  0
    0.5564   -5.0145    7.0714 O   0  0  0  1  0  0  0  0  0  0  0  0
    2.9134   -6.8337    5.4488 S   0  0  0  1  0  0  0  0  0  0  0  0
    3.5774   -6.8019    6.7365 O   0  0  0  1  0  0  0  0  0  0  0  0
    3.9432   -5.9272    6.8869 H   0  0  0  1  0  0  0  0  0  0  0  0
    1.7830   -7.7360    5.4100 O   0  0  0  1  0  0  0  0  0  0  0  0
    3.7942   -6.9178    4.3151 O   0  0  0  1  0  0  0  0  0  0  0  0
  1  2  1  0  0  0  0
  1  4  1  0  0  0  0
  1  5  1  0  0  0  0
  2  3  1  0  0  0  0
  2  7  1  0  0  0  0
  2  9  1  0  0  0  0
  4 10  2  0  0  0  0
  4 11  1  0  0  0  0
  5  6  1  0  0  0  0
  5 12  2  0  0  0  0
  7  8  1  0  0  0  0
  7 13  1  0  0  0  0
  7 15  1  0  0  0  0
  9 17  1  0  0  0  0
 10 12  1  0  0  0  0
 10 19  1  0  0  0  0
 11 20  2  0  0  0  0
 13 14  1  0  0  0  0
 13 17  1  0  0  0  0
 13 22  1  0  0  0  0
 15 16  1  0  0  0  0
 17 18  1  0  0  0  0
 17 23  1  0  0  0  0
 19 26  2  0  0  0  0
 19 27  1  0  0  0  0
 20 21  1  0  0  0  0
 20 26  1  0  0  0  0
 22 30  1  0  0  0  0
 23 24  1  0  0  0  0
 23 25  1  0  0  0  0
 23 31  1  0  0  0  0
 27 28  1  0  0  0  0
 27 29  1  0  0  0  0
 30 32  2  0  0  0  0
 30 33  1  0  0  0  0
 30 34  1  0  0  0  0
 31 35  1  0  0  0  0
 35 36  1  0  0  0  0
 35 37  1  0  0  0  0
 35 38  2  0  0  0  0
 36 39  1  0  0  0  0
 39 40  1  0  0  0  0
 39 42  2  0  0  0  0
 39 43  2  0  0  0  0
 40 41  1  0  0  0  0
M  BCL ATM N_TrTrTrPi2 C_TeTeTeTe H_S C_TrTrTrPi C_TrTrTrPi H_S C_TeTeTeTe H_S O_Te2Te2TeTe C_TrTrTrPi N_Tr2TrTrPi N_Tr2TrTrPi C_TeTeTeTe H_S O_Te2Te2TeTe H_S C_TeTeTeTe H_S C_TrTrTrPi C_TrTrTrPi H_S O_Tr2TrTrPi2 C_TeTeTeTe H_S H_S N_Tr2TrTrPi N_TrTrTrPi2 H_S H_S P_TeTeTeTePi O_Tr2TrTrPi2 O_Tr2Tr2TrPi O_Te2Te2Te2Te O_Te2Te2Te2Te P_TeTeTeTePi O_Tr2TrTrPi2 O_Te2Te2TeTe O_Tr2Tr2TrPi S_TeTeTeTePiPi O_Te2Te2TeTe H_S O_Tr2Tr2TrPi O_Tr2Tr2TrPi
M  BCL BND NonConjugatedSingleBond AromaticSingleBond AromaticSingleBond NonConjugatedSingleBond NonConjugatedSingleBondInRing NonConjugatedSingleBondInRing AromaticDoubleBond AromaticSingleBond NonConjugatedSingleBond AromaticDoubleBond NonConjugatedSingleBond NonConjugatedSingleBondInRing NonConjugatedSingleBond NonConjugatedSingleBondInRing AromaticSingleBond AromaticSingleBond AromaticDoubleBond NonConjugatedSingleBond NonConjugatedSingleBondInRing NonConjugatedSingleBond NonConjugatedSingleBond NonConjugatedSingleBond NonConjugatedSingleBond AromaticDoubleBond ConjugatedSingleBond NonConjugatedSingleBond AromaticSingleBond ConjugatedSingleBond NonConjugatedSingleBond NonConjugatedSingleBond NonConjugatedSingleBond NonConjugatedSingleBond NonConjugatedSingleBond ConjugatedDoubleBond ConjugatedSingleBond ConjugatedSingleBond ConjugatedSingleBond ConjugatedSingleBond ConjugatedSingleBond ConjugatedDoubleBond ConjugatedSingleBond ConjugatedSingleBond ConjugatedDoubleBond ConjugatedDoubleBond NonConjugatedSingleBond
M  BCL CHI   2   R   7   R  13   S  17   S  35   R
M  BCL DBI - - - - - - - -
M  END
> <ConfClashScore>
0 

> <ConfOneFourInteractionScore>
-0.964393 

> <ConfScore>
-0.307606 

> <ConfScorePBest>
0.0141715 

> <ConfTolerance>
0.947774 

$$$$
ChEBI.****
  PyMOL2.5          3D                             0

 43 45  0  0  0  0  0  0  0  0999 V2000
    1.0617    0.7781    7.0930 N   0  0  0  1  0  0  0  0  0  0  0  0
    0.4574    0.6729    5.7617 C   0  0  0  1  0  0  0  0  0  0  0  0
    0.8652    1.4288    5.1236 H   0  0  0  1  0  0  0  0  0  0  0  0
    0.8504    1.8113    7.9691 C   0  0  0  1  0  0  0  0  0  0  0  0
    1.9170   -0.0718    7.7246 C   0  0  0  1  0  0  0  0  0  0  0  0
    2.2594   -0.9497    7.2846 H   0  0  0  1  0  0  0  0  0  0  0  0
   -1.0712    0.8397    5.8637 C   0  0  0  1  0  0  0  0  0  0  0  0
   -1.3399    1.4510    6.6997 H   0  0  0  1  0  0  0  0  0  0  0  0
    0.7074   -0.5873    5.2249 O   0  0  0  1  0  0  0  0  0  0  0  0
    1.6095    1.5005    9.1052 C   0  0  0  1  0  0  0  0  0  0  0  0
    0.0765    2.8838    7.7964 N   0  0  0  1  0  0  0  0  0  0  0  0
    2.2750    0.2981    8.9242 N   0  0  0  1  0  0  0  0  0  0  0  0
   -1.5416   -0.6076    6.0587 C   0  0  0  1  0  0  0  0  0  0  0  0
   -2.5076   -0.7590    5.6243 H   0  0  0  1  0  0  0  0  0  0  0  0
   -1.6118    1.4032    4.6677 O   0  0  0  1  0  0  0  0  0  0  0  0
   -2.3077    2.0250    4.8925 H   0  0  0  1  0  0  0  0  0  0  0  0
   -0.4729   -1.4242    5.3218 C   0  0  0  1  0  0  0  0  0  0  0  0
   -0.8196   -1.6853    4.3438 H   0  0  0  1  0  0  0  0  0  0  0  0
    1.5325    2.4196   10.1475 C   0  0  0  1  0  0  0  0  0  0  0  0
    0.1034    3.6757    8.8614 C   0  0  0  1  0  0  0  0  0  0  0  0
   -0.4756    4.5372    8.7961 H   0  0  0  1  0  0  0  0  0  0  0  0
   -1.5836   -0.9557    7.4663 O   0  0  0  1  0  0  0  0  0  0  0  0
   -0.1588   -2.6671    6.0876 C   0  0  0  1  0  0  0  0  0  0  0  0
    0.6037   -3.2230    5.5832 H   0  0  0  1  0  0  0  0  0  0  0  0
   -1.0380   -3.2698    6.1806 H   0  0  0  1  0  0  0  0  0  0  0  0
    0.7770    3.5147   10.0113 N   0  0  0  1  0  0  0  0  0  0  0  0
    2.1869    2.3154   11.3701 N   0  0  0  1  0  0  0  0  0  0  0  0
    2.7394    1.5297   11.5648 H   0  0  0  1  0  0  0  0  0  0  0  0
    2.0957    3.0276   12.0370 H   0  0  0  1  0  0  0  0  0  0  0  0
   -3.0143   -1.2051    8.2284 P   0  0  0  1  0  0  0  0  0  0  0  0
    0.3070   -2.2695    7.3987 O   0  0  0  1  0  0  0  0  0  0  0  0
   -3.9757   -0.1051    7.9913 O   0  0  0  1  0  0  0  0  0  0  0  0
   -2.6332   -1.4128    9.7891 O   0  5  0  1  0  0  0  0  0  0  0  0
   -3.6801   -2.5595    7.6396 O   0  5  0  1  0  0  0  0  0  0  0  0
    0.4894   -3.3308    8.5461 P   0  0  0  1  0  0  0  0  0  0  0  0
    1.5764   -4.4061    7.8598 O   0  0  0  1  0  0  0  0  0  0  0  0
   -0.8078   -4.0617    8.7651 O   0  0  0  0  0  0  0  0  0  0  0  0
    1.0714   -2.5955    9.7004 O   0  0  0  1  0  0  0  0  0  0  0  0
    1.6636   -5.9406    7.5326 S   0  0  0  1  0  0  0  0  0  0  0  0
    3.0081   -6.2623    7.9599 O   0  0  0  1  0  0  0  0  0  0  0  0
    3.2761   -5.6585    8.6565 H   0  0  0  1  0  0  0  0  0  0  0  0
    0.6388   -6.5977    8.2931 O   0  0  0  1  0  0  0  0  0  0  0  0
    1.4950   -6.1009    6.1085 O   0  0  0  1  0  0  0  0  0  0  0  0
  1  2  1  0  0  0  0
  1  4  1  0  0  0  0
  1  5  1  0  0  0  0
  2  3  1  0  0  0  0
  2  7  1  0  0  0  0
  2  9  1  0  0  0  0
  4 10  2  0  0  0  0
  4 11  1  0  0  0  0
  5  6  1  0  0  0  0
  5 12  2  0  0  0  0
  7  8  1  0  0  0  0
  7 13  1  0  0  0  0
  7 15  1  0  0  0  0
  9 17  1  0  0  0  0
 10 12  1  0  0  0  0
 10 19  1  0  0  0  0
 11 20  2  0  0  0  0
 13 14  1  0  0  0  0
 13 17  1  0  0  0  0
 13 22  1  0  0  0  0
 15 16  1  0  0  0  0
 17 18  1  0  0  0  0
 17 23  1  0  0  0  0
 19 26  2  0  0  0  0
 19 27  1  0  0  0  0
 20 21  1  0  0  0  0
 20 26  1  0  0  0  0
 22 30  1  0  0  0  0
 23 24  1  0  0  0  0
 23 25  1  0  0  0  0
 23 31  1  0  0  0  0
 27 28  1  0  0  0  0
 27 29  1  0  0  0  0
 30 32  2  0  0  0  0
 30 33  1  0  0  0  0
 30 34  1  0  0  0  0
 31 35  1  0  0  0  0
 35 36  1  0  0  0  0
 35 37  1  0  0  0  0
 35 38  2  0  0  0  0
 36 39  1  0  0  0  0
 39 40  1  0  0  0  0
 39 42  2  0  0  0  0
 39 43  2  0  0  0  0
 40 41  1  0  0  0  0
M  BCL ATM N_TrTrTrPi2 C_TeTeTeTe H_S C_TrTrTrPi C_TrTrTrPi H_S C_TeTeTeTe H_S O_Te2Te2TeTe C_TrTrTrPi N_Tr2TrTrPi N_Tr2TrTrPi C_TeTeTeTe H_S O_Te2Te2TeTe H_S C_TeTeTeTe H_S C_TrTrTrPi C_TrTrTrPi H_S O_Tr2TrTrPi2 C_TeTeTeTe H_S H_S N_Tr2TrTrPi N_TrTrTrPi2 H_S H_S P_TeTeTeTePi O_Tr2TrTrPi2 O_Tr2Tr2TrPi O_Te2Te2Te2Te O_Te2Te2Te2Te P_TeTeTeTePi O_Tr2TrTrPi2 O_Te2Te2TeTe O_Tr2Tr2TrPi S_TeTeTeTePiPi O_Te2Te2TeTe H_S O_Tr2Tr2TrPi O_Tr2Tr2TrPi
M  BCL BND NonConjugatedSingleBond AromaticSingleBond AromaticSingleBond NonConjugatedSingleBond NonConjugatedSingleBondInRing NonConjugatedSingleBondInRing AromaticDoubleBond AromaticSingleBond NonConjugatedSingleBond AromaticDoubleBond NonConjugatedSingleBond NonConjugatedSingleBondInRing NonConjugatedSingleBond NonConjugatedSingleBondInRing AromaticSingleBond AromaticSingleBond AromaticDoubleBond NonConjugatedSingleBond NonConjugatedSingleBondInRing NonConjugatedSingleBond NonConjugatedSingleBond NonConjugatedSingleBond NonConjugatedSingleBond AromaticDoubleBond ConjugatedSingleBond NonConjugatedSingleBond AromaticSingleBond ConjugatedSingleBond NonConjugatedSingleBond NonConjugatedSingleBond NonConjugatedSingleBond NonConjugatedSingleBond NonConjugatedSingleBond ConjugatedDoubleBond ConjugatedSingleBond ConjugatedSingleBond ConjugatedSingleBond ConjugatedSingleBond ConjugatedSingleBond ConjugatedDoubleBond ConjugatedSingleBond ConjugatedSingleBond ConjugatedDoubleBond ConjugatedDoubleBond NonConjugatedSingleBond
M  BCL CHI   2   R   7   R  13   S  17   S  35   R
M  BCL DBI - - - - - - - -
M  END
> <ConfClashScore>
0 

> <ConfOneFourInteractionScore>
-0.987405 

> <ConfScore>
-0.306869 

> <ConfScorePBest>
0.0140685 

> <ConfTolerance>
0.965015 

$$$$
ChEBI.****
  PyMOL2.5          3D                             0

 43 45  0  0  0  0  0  0  0  0999 V2000
    1.0724    0.7893    7.1241 N   0  0  0  1  0  0  0  0  0  0  0  0
    0.5107    0.6095    5.7850 C   0  0  0  1  0  0  0  0  0  0  0  0
    0.5039    1.5482    5.2715 H   0  0  0  1  0  0  0  0  0  0  0  0
    0.8433    1.8325    7.9838 C   0  0  0  1  0  0  0  0  0  0  0  0
    1.9302   -0.0433    7.7750 C   0  0  0  1  0  0  0  0  0  0  0  0
    2.2850   -0.9239    7.3504 H   0  0  0  1  0  0  0  0  0  0  0  0
   -0.9065    0.0402    5.8737 C   0  0  0  1  0  0  0  0  0  0  0  0
   -1.0278   -0.5791    6.7378 H   0  0  0  1  0  0  0  0  0  0  0  0
    1.2722   -0.3555    5.0502 O   0  0  0  1  0  0  0  0  0  0  0  0
    1.5954    1.5450    9.1308 C   0  0  0  1  0  0  0  0  0  0  0  0
    0.0607    2.8949    7.7895 N   0  0  0  1  0  0  0  0  0  0  0  0
    2.2740    0.3466    8.9723 N   0  0  0  1  0  0  0  0  0  0  0  0
   -0.9735   -0.7733    4.5895 C   0  0  0  1  0  0  0  0  0  0  0  0
   -1.2801   -0.1565    3.7707 H   0  0  0  1  0  0  0  0  0  0  0  0
   -1.8883    1.0775    5.8890 O   0  0  0  1  0  0  0  0  0  0  0  0
   -1.4921    1.8982    5.5870 H   0  0  0  1  0  0  0  0  0  0  0  0
    0.3898   -1.2710    4.3755 C   0  0  0  1  0  0  0  0  0  0  0  0
    0.6136   -1.2962    3.3295 H   0  0  0  1  0  0  0  0  0  0  0  0
    1.5003    2.4776   10.1594 C   0  0  0  1  0  0  0  0  0  0  0  0
    0.0705    3.7017    8.8435 C   0  0  0  1  0  0  0  0  0  0  0  0
   -0.5162    4.5564    8.7611 H   0  0  0  1  0  0  0  0  0  0  0  0
   -1.8918   -1.8684    4.7350 O   0  0  0  1  0  0  0  0  0  0  0  0
    0.5336   -2.6422    4.9492 C   0  0  0  1  0  0  0  0  0  0  0  0
   -0.2059   -3.2920    4.5300 H   0  0  0  1  0  0  0  0  0  0  0  0
    0.4165   -2.6066    6.0122 H   0  0  0  1  0  0  0  0  0  0  0  0
    0.7354    3.5633   10.0014 N   0  0  0  1  0  0  0  0  0  0  0  0
    2.2010    2.2518   11.3148 N   0  0  0  1  0  0  0  0  0  0  0  0
    2.6793    1.4057   11.4403 H   0  0  0  1  0  0  0  0  0  0  0  0
    2.2240    2.9363   12.0156 H   0  0  0  1  0  0  0  0  0  0  0  0
   -3.1801   -2.1607    3.7632 P   0  0  0  1  0  0  0  0  0  0  0  0
    1.8573   -3.1217    4.6151 O   0  0  0  1  0  0  0  0  0  0  0  0
   -4.0887   -0.9961    3.6716 O   0  0  0  1  0  0  0  0  0  0  0  0
   -4.0218   -3.3724    4.4322 O   0  5  0  1  0  0  0  0  0  0  0  0
   -2.7072   -2.6656    2.2983 O   0  5  0  1  0  0  0  0  0  0  0  0
    2.2851   -4.6010    4.9390 P   0  0  0  1  0  0  0  0  0  0  0  0
    1.2343   -5.6100    4.1105 O   0  0  0  1  0  0  0  0  0  0  0  0
    2.0818   -4.7735    6.4074 O   0  0  0  0  0  0  0  0  0  0  0  0
    3.6504   -4.9015    4.4465 O   0  0  0  1  0  0  0  0  0  0  0  0
    0.9276   -6.0232    2.6257 S   0  0  0  1  0  0  0  0  0  0  0  0
    0.8743   -4.7252    2.0180 O   0  0  0  1  0  0  0  0  0  0  0  0
    1.2686   -4.0787    2.6081 H   0  0  0  1  0  0  0  0  0  0  0  0
    1.9776   -6.8082    2.1332 O   0  0  0  1  0  0  0  0  0  0  0  0
   -0.3075   -6.6871    2.6313 O   0  0  0  1  0  0  0  0  0  0  0  0
  1  2  1  0  0  0  0
  1  4  1  0  0  0  0
  1  5  1  0  0  0  0
  2  3  1  0  0  0  0
  2  7  1  0  0  0  0
  2  9  1  0  0  0  0
  4 10  2  0  0  0  0
  4 11  1  0  0  0  0
  5  6  1  0  0  0  0
  5 12  2  0  0  0  0
  7  8  1  0  0  0  0
  7 13  1  0  0  0  0
  7 15  1  0  0  0  0
  9 17  1  0  0  0  0
 10 12  1  0  0  0  0
 10 19  1  0  0  0  0
 11 20  2  0  0  0  0
 13 14  1  0  0  0  0
 13 17  1  0  0  0  0
 13 22  1  0  0  0  0
 15 16  1  0  0  0  0
 17 18  1  0  0  0  0
 17 23  1  0  0  0  0
 19 26  2  0  0  0  0
 19 27  1  0  0  0  0
 20 21  1  0  0  0  0
 20 26  1  0  0  0  0
 22 30  1  0  0  0  0
 23 24  1  0  0  0  0
 23 25  1  0  0  0  0
 23 31  1  0  0  0  0
 27 28  1  0  0  0  0
 27 29  1  0  0  0  0
 30 32  2  0  0  0  0
 30 33  1  0  0  0  0
 30 34  1  0  0  0  0
 31 35  1  0  0  0  0
 35 36  1  0  0  0  0
 35 37  1  0  0  0  0
 35 38  2  0  0  0  0
 36 39  1  0  0  0  0
 39 40  1  0  0  0  0
 39 42  2  0  0  0  0
 39 43  2  0  0  0  0
 40 41  1  0  0  0  0
M  BCL ATM N_TrTrTrPi2 C_TeTeTeTe H_S C_TrTrTrPi C_TrTrTrPi H_S C_TeTeTeTe H_S O_Te2Te2TeTe C_TrTrTrPi N_Tr2TrTrPi N_Tr2TrTrPi C_TeTeTeTe H_S O_Te2Te2TeTe H_S C_TeTeTeTe H_S C_TrTrTrPi C_TrTrTrPi H_S O_Tr2TrTrPi2 C_TeTeTeTe H_S H_S N_Tr2TrTrPi N_TrTrTrPi2 H_S H_S P_TeTeTeTePi O_Tr2TrTrPi2 O_Tr2Tr2TrPi O_Te2Te2Te2Te O_Te2Te2Te2Te P_TeTeTeTePi O_Tr2TrTrPi2 O_Te2Te2TeTe O_Tr2Tr2TrPi S_TeTeTeTePiPi O_Te2Te2TeTe H_S O_Tr2Tr2TrPi O_Tr2Tr2TrPi
M  BCL BND NonConjugatedSingleBond AromaticSingleBond AromaticSingleBond NonConjugatedSingleBond NonConjugatedSingleBondInRing NonConjugatedSingleBondInRing AromaticDoubleBond AromaticSingleBond NonConjugatedSingleBond AromaticDoubleBond NonConjugatedSingleBond NonConjugatedSingleBondInRing NonConjugatedSingleBond NonConjugatedSingleBondInRing AromaticSingleBond AromaticSingleBond AromaticDoubleBond NonConjugatedSingleBond NonConjugatedSingleBondInRing NonConjugatedSingleBond NonConjugatedSingleBond NonConjugatedSingleBond NonConjugatedSingleBond AromaticDoubleBond ConjugatedSingleBond NonConjugatedSingleBond AromaticSingleBond ConjugatedSingleBond NonConjugatedSingleBond NonConjugatedSingleBond NonConjugatedSingleBond NonConjugatedSingleBond NonConjugatedSingleBond ConjugatedDoubleBond ConjugatedSingleBond ConjugatedSingleBond ConjugatedSingleBond ConjugatedSingleBond ConjugatedSingleBond ConjugatedDoubleBond ConjugatedSingleBond ConjugatedSingleBond ConjugatedDoubleBond ConjugatedDoubleBond NonConjugatedSingleBond
M  BCL CHI   2   R   7   R  13   S  17   S  35   R
M  BCL DBI - - - - - - - -
M  END
> <ConfClashScore>
0 

> <ConfOneFourInteractionScore>
-0.981627 

> <ConfScore>
-0.305832 

> <ConfScorePBest>
0.0139655 

> <ConfTolerance>
0.932463 

$$$$
ChEBI.****
  PyMOL2.5          3D                             0

 43 45  0  0  0  0  0  0  0  0999 V2000
    1.0847    0.8038    7.0779 N   0  0  0  1  0  0  0  0  0  0  0  0
    0.3879    0.5653    5.7988 C   0  0  0  1  0  0  0  0  0  0  0  0
   -0.3148   -0.2328    5.9182 H   0  0  0  1  0  0  0  0  0  0  0  0
    0.8656    1.8293    7.9611 C   0  0  0  1  0  0  0  0  0  0  0  0
    1.9351   -0.0512    7.7094 C   0  0  0  1  0  0  0  0  0  0  0  0
    2.2816   -0.9252    7.2647 H   0  0  0  1  0  0  0  0  0  0  0  0
    1.3954    0.2278    4.6980 C   0  0  0  1  0  0  0  0  0  0  0  0
    2.3368    0.7075    4.8667 H   0  0  0  1  0  0  0  0  0  0  0  0
   -0.2787    1.7560    5.3643 O   0  0  0  1  0  0  0  0  0  0  0  0
    1.6154    1.5091    9.1008 C   0  0  0  1  0  0  0  0  0  0  0  0
    0.0927    2.9030    7.7913 N   0  0  0  1  0  0  0  0  0  0  0  0
    2.2829    0.3085    8.9150 N   0  0  0  1  0  0  0  0  0  0  0  0
    0.6902    0.7958    3.4751 C   0  0  0  1  0  0  0  0  0  0  0  0
    0.0124    0.0763    3.0655 H   0  0  0  1  0  0  0  0  0  0  0  0
    1.5926   -1.1820    4.5819 O   0  0  0  1  0  0  0  0  0  0  0  0
    1.0722   -1.6345    5.2497 H   0  0  0  1  0  0  0  0  0  0  0  0
   -0.0404    1.9714    3.9612 C   0  0  0  1  0  0  0  0  0  0  0  0
   -0.9696    2.0700    3.4398 H   0  0  0  1  0  0  0  0  0  0  0  0
    1.5293    2.4191   10.1503 C   0  0  0  1  0  0  0  0  0  0  0  0
    0.1104    3.6857    8.8632 C   0  0  0  1  0  0  0  0  0  0  0  0
   -0.4685    4.5474    8.8005 H   0  0  0  1  0  0  0  0  0  0  0  0
    1.6476    1.1769    2.4741 O   0  0  0  1  0  0  0  0  0  0  0  0
    0.7673    3.1904    3.7633 C   0  0  0  1  0  0  0  0  0  0  0  0
    1.0857    3.2403    2.7430 H   0  0  0  1  0  0  0  0  0  0  0  0
    1.6239    3.1532    4.4033 H   0  0  0  1  0  0  0  0  0  0  0  0
    0.7744    3.5151   10.0173 N   0  0  0  1  0  0  0  0  0  0  0  0
    2.1736    2.3046   11.3774 N   0  0  0  1  0  0  0  0  0  0  0  0
    2.6970    1.5021   11.5830 H   0  0  0  1  0  0  0  0  0  0  0  0
    2.1041    3.0265   12.0365 H   0  0  0  1  0  0  0  0  0  0  0  0
    1.3773    1.1802    0.8565 P   0  0  0  1  0  0  0  0  0  0  0  0
   -0.0114    4.3688    4.0776 O   0  0  0  1  0  0  0  0  0  0  0  0
    1.0290   -0.1650    0.3472 O   0  0  0  1  0  0  0  0  0  0  0  0
    2.6953    1.8243    0.1691 O   0  5  0  1  0  0  0  0  0  0  0  0
    0.1471    2.2193    0.6803 O   0  5  0  1  0  0  0  0  0  0  0  0
    0.6182    5.8367    3.9218 P   0  0  0  1  0  0  0  0  0  0  0  0
    0.8702    5.9107    2.2665 O   0  0  0  1  0  0  0  0  0  0  0  0
    1.9026    5.8833    4.6624 O   0  0  0  0  0  0  0  0  0  0  0  0
   -0.4091    6.8306    4.2353 O   0  0  0  1  0  0  0  0  0  0  0  0
    0.4837    5.0755    0.9609 S   0  0  0  1  0  0  0  0  0  0  0  0
   -0.8529    4.5665    1.1782 O   0  0  0  1  0  0  0  0  0  0  0  0
   -1.4943    5.2460    0.9578 H   0  0  0  1  0  0  0  0  0  0  0  0
    0.5371    6.0009   -0.1468 O   0  0  0  1  0  0  0  0  0  0  0  0
    1.5018    4.0623    0.9451 O   0  0  0  1  0  0  0  0  0  0  0  0
  1  2  1  0  0  0  0
  1  4  1  0  0  0  0
  1  5  1  0  0  0  0
  2  3  1  0  0  0  0
  2  7  1  0  0  0  0
  2  9  1  0  0  0  0
  4 10  2  0  0  0  0
  4 11  1  0  0  0  0
  5  6  1  0  0  0  0
  5 12  2  0  0  0  0
  7  8  1  0  0  0  0
  7 13  1  0  0  0  0
  7 15  1  0  0  0  0
  9 17  1  0  0  0  0
 10 12  1  0  0  0  0
 10 19  1  0  0  0  0
 11 20  2  0  0  0  0
 13 14  1  0  0  0  0
 13 17  1  0  0  0  0
 13 22  1  0  0  0  0
 15 16  1  0  0  0  0
 17 18  1  0  0  0  0
 17 23  1  0  0  0  0
 19 26  2  0  0  0  0
 19 27  1  0  0  0  0
 20 21  1  0  0  0  0
 20 26  1  0  0  0  0
 22 30  1  0  0  0  0
 23 24  1  0  0  0  0
 23 25  1  0  0  0  0
 23 31  1  0  0  0  0
 27 28  1  0  0  0  0
 27 29  1  0  0  0  0
 30 32  2  0  0  0  0
 30 33  1  0  0  0  0
 30 34  1  0  0  0  0
 31 35  1  0  0  0  0
 35 36  1  0  0  0  0
 35 37  1  0  0  0  0
 35 38  2  0  0  0  0
 36 39  1  0  0  0  0
 39 40  1  0  0  0  0
 39 42  2  0  0  0  0
 39 43  2  0  0  0  0
 40 41  1  0  0  0  0
M  BCL ATM N_TrTrTrPi2 C_TeTeTeTe H_S C_TrTrTrPi C_TrTrTrPi H_S C_TeTeTeTe H_S O_Te2Te2TeTe C_TrTrTrPi N_Tr2TrTrPi N_Tr2TrTrPi C_TeTeTeTe H_S O_Te2Te2TeTe H_S C_TeTeTeTe H_S C_TrTrTrPi C_TrTrTrPi H_S O_Tr2TrTrPi2 C_TeTeTeTe H_S H_S N_Tr2TrTrPi N_TrTrTrPi2 H_S H_S P_TeTeTeTePi O_Tr2TrTrPi2 O_Tr2Tr2TrPi O_Te2Te2Te2Te O_Te2Te2Te2Te P_TeTeTeTePi O_Tr2TrTrPi2 O_Te2Te2TeTe O_Tr2Tr2TrPi S_TeTeTeTePiPi O_Te2Te2TeTe H_S O_Tr2Tr2TrPi O_Tr2Tr2TrPi
M  BCL BND NonConjugatedSingleBond AromaticSingleBond AromaticSingleBond NonConjugatedSingleBond NonConjugatedSingleBondInRing NonConjugatedSingleBondInRing AromaticDoubleBond AromaticSingleBond NonConjugatedSingleBond AromaticDoubleBond NonConjugatedSingleBond NonConjugatedSingleBondInRing NonConjugatedSingleBond NonConjugatedSingleBondInRing AromaticSingleBond AromaticSingleBond AromaticDoubleBond NonConjugatedSingleBond NonConjugatedSingleBondInRing NonConjugatedSingleBond NonConjugatedSingleBond NonConjugatedSingleBond NonConjugatedSingleBond AromaticDoubleBond ConjugatedSingleBond NonConjugatedSingleBond AromaticSingleBond ConjugatedSingleBond NonConjugatedSingleBond NonConjugatedSingleBond NonConjugatedSingleBond NonConjugatedSingleBond NonConjugatedSingleBond ConjugatedDoubleBond ConjugatedSingleBond ConjugatedSingleBond ConjugatedSingleBond ConjugatedSingleBond ConjugatedSingleBond ConjugatedDoubleBond ConjugatedSingleBond ConjugatedSingleBond ConjugatedDoubleBond ConjugatedDoubleBond NonConjugatedSingleBond
M  BCL CHI   2   R   7   R  13   S  17   S  35   R
M  BCL DBI - - - - - - - -
M  END
> <ConfClashScore>
0 

> <ConfOneFourInteractionScore>
-0.981627 

> <ConfScore>
-0.304639 

> <ConfScorePBest>
0.0138625 

> <ConfTolerance>
1.1506 

$$$$
ChEBI.****
  PyMOL2.5          3D                             0

 43 45  0  0  0  0  0  0  0  0999 V2000
    1.0773    0.7957    7.1001 N   0  0  0  1  0  0  0  0  0  0  0  0
    0.4273    0.5790    5.7760 C   0  0  0  1  0  0  0  0  0  0  0  0
    1.0885    0.8969    4.9972 H   0  0  0  1  0  0  0  0  0  0  0  0
    0.8583    1.8301    7.9730 C   0  0  0  1  0  0  0  0  0  0  0  0
    1.9275   -0.0530    7.7400 C   0  0  0  1  0  0  0  0  0  0  0  0
    2.2739   -0.9314    7.3041 H   0  0  0  1  0  0  0  0  0  0  0  0
   -0.9001    1.3390    5.6978 C   0  0  0  1  0  0  0  0  0  0  0  0
   -1.2896    1.5327    6.6754 H   0  0  0  1  0  0  0  0  0  0  0  0
    0.0746   -0.8124    5.6057 O   0  0  0  1  0  0  0  0  0  0  0  0
    1.6081    1.5211    9.1159 C   0  0  0  1  0  0  0  0  0  0  0  0
    0.0855    2.9021    7.7925 N   0  0  0  1  0  0  0  0  0  0  0  0
    2.2754    0.3186    8.9420 N   0  0  0  1  0  0  0  0  0  0  0  0
   -1.7927    0.3929    4.9384 C   0  0  0  1  0  0  0  0  0  0  0  0
   -1.6659    0.5070    3.8821 H   0  0  0  1  0  0  0  0  0  0  0  0
   -0.7438    2.5720    4.9939 O   0  0  0  1  0  0  0  0  0  0  0  0
   -1.0499    2.4661    4.0902 H   0  0  0  1  0  0  0  0  0  0  0  0
   -1.3027   -0.9841    5.4093 C   0  0  0  1  0  0  0  0  0  0  0  0
   -1.4894   -1.7283    4.6634 H   0  0  0  1  0  0  0  0  0  0  0  0
    1.5220    2.4416   10.1562 C   0  0  0  1  0  0  0  0  0  0  0  0
    0.1033    3.6954    8.8565 C   0  0  0  1  0  0  0  0  0  0  0  0
   -0.4754    4.5566    8.7852 H   0  0  0  1  0  0  0  0  0  0  0  0
   -3.1866    0.5982    5.2838 O   0  0  0  1  0  0  0  0  0  0  0  0
   -1.9739   -1.3769    6.6842 C   0  0  0  1  0  0  0  0  0  0  0  0
   -3.0017   -1.6092    6.4984 H   0  0  0  1  0  0  0  0  0  0  0  0
   -1.9108   -0.5760    7.3910 H   0  0  0  1  0  0  0  0  0  0  0  0
    0.7673    3.5362   10.0123 N   0  0  0  1  0  0  0  0  0  0  0  0
    2.1814    2.2872   11.3471 N   0  0  0  1  0  0  0  0  0  0  0  0
    2.7639    1.5118   11.4878 H   0  0  0  1  0  0  0  0  0  0  0  0
    2.0705    2.9522   12.0584 H   0  0  0  1  0  0  0  0  0  0  0  0
   -4.3423    0.9529    4.1756 P   0  0  0  1  0  0  0  0  0  0  0  0
   -1.2903   -2.5436    7.1993 O   0  0  0  1  0  0  0  0  0  0  0  0
   -3.6471    1.6990    3.1029 O   0  0  0  1  0  0  0  0  0  0  0  0
   -5.4313    1.8941    4.9191 O   0  5  0  1  0  0  0  0  0  0  0  0
   -5.1480   -0.3880    3.7548 O   0  5  0  1  0  0  0  0  0  0  0  0
   -1.5788   -3.0794    8.6979 P   0  0  0  1  0  0  0  0  0  0  0  0
   -3.1929   -3.5239    8.6186 O   0  0  0  1  0  0  0  0  0  0  0  0
   -1.3098   -1.9358    9.6360 O   0  0  0  0  0  0  0  0  0  0  0  0
   -0.7267   -4.2308    8.9260 O   0  0  0  1  0  0  0  0  0  0  0  0
   -4.0593   -4.8104    8.7938 S   0  0  0  1  0  0  0  0  0  0  0  0
   -3.8866   -5.6100    7.6107 O   0  0  0  1  0  0  0  0  0  0  0  0
   -2.9660   -5.8704    7.5315 H   0  0  0  1  0  0  0  0  0  0  0  0
   -3.5951   -5.5371    9.9314 O   0  0  0  1  0  0  0  0  0  0  0  0
   -5.3814   -4.2944    8.9123 O   0  0  0  1  0  0  0  0  0  0  0  0
  1  2  1  0  0  0  0
  1  4  1  0  0  0  0
  1  5  1  0  0  0  0
  2  3  1  0  0  0  0
  2  7  1  0  0  0  0
  2  9  1  0  0  0  0
  4 10  2  0  0  0  0
  4 11  1  0  0  0  0
  5  6  1  0  0  0  0
  5 12  2  0  0  0  0
  7  8  1  0  0  0  0
  7 13  1  0  0  0  0
  7 15  1  0  0  0  0
  9 17  1  0  0  0  0
 10 12  1  0  0  0  0
 10 19  1  0  0  0  0
 11 20  2  0  0  0  0
 13 14  1  0  0  0  0
 13 17  1  0  0  0  0
 13 22  1  0  0  0  0
 15 16  1  0  0  0  0
 17 18  1  0  0  0  0
 17 23  1  0  0  0  0
 19 26  2  0  0  0  0
 19 27  1  0  0  0  0
 20 21  1  0  0  0  0
 20 26  1  0  0  0  0
 22 30  1  0  0  0  0
 23 24  1  0  0  0  0
 23 25  1  0  0  0  0
 23 31  1  0  0  0  0
 27 28  1  0  0  0  0
 27 29  1  0  0  0  0
 30 32  2  0  0  0  0
 30 33  1  0  0  0  0
 30 34  1  0  0  0  0
 31 35  1  0  0  0  0
 35 36  1  0  0  0  0
 35 37  1  0  0  0  0
 35 38  2  0  0  0  0
 36 39  1  0  0  0  0
 39 40  1  0  0  0  0
 39 42  2  0  0  0  0
 39 43  2  0  0  0  0
 40 41  1  0  0  0  0
M  BCL ATM N_TrTrTrPi2 C_TeTeTeTe H_S C_TrTrTrPi C_TrTrTrPi H_S C_TeTeTeTe H_S O_Te2Te2TeTe C_TrTrTrPi N_Tr2TrTrPi N_Tr2TrTrPi C_TeTeTeTe H_S O_Te2Te2TeTe H_S C_TeTeTeTe H_S C_TrTrTrPi C_TrTrTrPi H_S O_Tr2TrTrPi2 C_TeTeTeTe H_S H_S N_Tr2TrTrPi N_TrTrTrPi2 H_S H_S P_TeTeTeTePi O_Tr2TrTrPi2 O_Tr2Tr2TrPi O_Te2Te2Te2Te O_Te2Te2Te2Te P_TeTeTeTePi O_Tr2TrTrPi2 O_Te2Te2TeTe O_Tr2Tr2TrPi S_TeTeTeTePiPi O_Te2Te2TeTe H_S O_Tr2Tr2TrPi O_Tr2Tr2TrPi
M  BCL BND NonConjugatedSingleBond AromaticSingleBond AromaticSingleBond NonConjugatedSingleBond NonConjugatedSingleBondInRing NonConjugatedSingleBondInRing AromaticDoubleBond AromaticSingleBond NonConjugatedSingleBond AromaticDoubleBond NonConjugatedSingleBond NonConjugatedSingleBondInRing NonConjugatedSingleBond NonConjugatedSingleBondInRing AromaticSingleBond AromaticSingleBond AromaticDoubleBond NonConjugatedSingleBond NonConjugatedSingleBondInRing NonConjugatedSingleBond NonConjugatedSingleBond NonConjugatedSingleBond NonConjugatedSingleBond AromaticDoubleBond ConjugatedSingleBond NonConjugatedSingleBond AromaticSingleBond ConjugatedSingleBond NonConjugatedSingleBond NonConjugatedSingleBond NonConjugatedSingleBond NonConjugatedSingleBond NonConjugatedSingleBond ConjugatedDoubleBond ConjugatedSingleBond ConjugatedSingleBond ConjugatedSingleBond ConjugatedSingleBond ConjugatedSingleBond ConjugatedDoubleBond ConjugatedSingleBond ConjugatedSingleBond ConjugatedDoubleBond ConjugatedDoubleBond NonConjugatedSingleBond
M  BCL CHI   2   R   7   R  13   S  17   S  35   R
M  BCL DBI - - - - - - - -
M  END
> <ConfClashScore>
0 

> <ConfOneFourInteractionScore>
-0.978904 

> <ConfScore>
-0.303605 

> <ConfScorePBest>
0.0137595 

> <ConfTolerance>
0.99738 

$$$$
ChEBI.****
  PyMOL2.5          3D                             0

 43 45  0  0  0  0  0  0  0  0999 V2000
    1.0486    0.7849    7.1082 N   0  0  0  1  0  0  0  0  0  0  0  0
    0.5908    0.6427    5.7150 C   0  0  0  1  0  0  0  0  0  0  0  0
    0.9321    1.4779    5.1398 H   0  0  0  1  0  0  0  0  0  0  0  0
    0.8332    1.8203    7.9806 C   0  0  0  1  0  0  0  0  0  0  0  0
    1.8873   -0.0719    7.7526 C   0  0  0  1  0  0  0  0  0  0  0  0
    2.2287   -0.9529    7.3181 H   0  0  0  1  0  0  0  0  0  0  0  0
   -0.9362    0.5393    5.6588 C   0  0  0  1  0  0  0  0  0  0  0  0
   -1.3324    0.1978    6.5923 H   0  0  0  1  0  0  0  0  0  0  0  0
    1.0728   -0.5958    5.1465 O   0  0  0  1  0  0  0  0  0  0  0  0
    1.5730    1.5038    9.1279 C   0  0  0  1  0  0  0  0  0  0  0  0
    0.0711    2.8993    7.7962 N   0  0  0  1  0  0  0  0  0  0  0  0
    2.2308    0.2956    8.9571 N   0  0  0  1  0  0  0  0  0  0  0  0
   -1.1714   -0.4736    4.5692 C   0  0  0  1  0  0  0  0  0  0  0  0
   -1.1679   -0.0105    3.6046 H   0  0  0  1  0  0  0  0  0  0  0  0
   -1.5229    1.7977    5.3237 O   0  0  0  1  0  0  0  0  0  0  0  0
   -0.8446    2.3883    4.9881 H   0  0  0  1  0  0  0  0  0  0  0  0
    0.0225   -1.4257    4.7305 C   0  0  0  1  0  0  0  0  0  0  0  0
    0.2587   -1.8985    3.8001 H   0  0  0  1  0  0  0  0  0  0  0  0
    1.4886    2.4240   10.1686 C   0  0  0  1  0  0  0  0  0  0  0  0
    0.0891    3.6915    8.8612 C   0  0  0  1  0  0  0  0  0  0  0  0
   -0.4815    4.5578    8.7870 H   0  0  0  1  0  0  0  0  0  0  0  0
   -2.4280   -1.1721    4.7665 O   0  0  0  1  0  0  0  0  0  0  0  0
   -0.2675   -2.4681    5.7597 C   0  0  0  1  0  0  0  0  0  0  0  0
   -1.1769   -2.9769    5.5170 H   0  0  0  1  0  0  0  0  0  0  0  0
   -0.3593   -2.0128    6.7237 H   0  0  0  1  0  0  0  0  0  0  0  0
    0.7444    3.5254   10.0209 N   0  0  0  1  0  0  0  0  0  0  0  0
    2.2158    2.3028   11.3413 N   0  0  0  1  0  0  0  0  0  0  0  0
    2.8517    1.5650   11.4495 H   0  0  0  1  0  0  0  0  0  0  0  0
    2.0945    2.9549   12.0628 H   0  0  0  1  0  0  0  0  0  0  0  0
   -3.8100   -0.4190    5.2275 P   0  0  0  1  0  0  0  0  0  0  0  0
    0.8359   -3.4043    5.7600 O   0  0  0  1  0  0  0  0  0  0  0  0
   -3.7678    0.3962    6.4620 O   0  0  0  1  0  0  0  0  0  0  0  0
   -5.0390   -1.4713    5.3079 O   0  5  0  1  0  0  0  0  0  0  0  0
   -4.0869    0.5096    3.9293 O   0  5  0  1  0  0  0  0  0  0  0  0
    0.9971   -4.5902    6.8636 P   0  0  0  1  0  0  0  0  0  0  0  0
    1.1158   -3.5234    8.0894 O   0  0  0  1  0  0  0  0  0  0  0  0
    2.2875   -5.2913    6.6694 O   0  0  0  0  0  0  0  0  0  0  0  0
   -0.2505   -5.3735    6.9808 O   0  0  0  1  0  0  0  0  0  0  0  0
   -0.1208   -2.9691    8.9350 S   0  0  0  1  0  0  0  0  0  0  0  0
   -0.0966   -1.5255    8.8040 O   0  0  0  1  0  0  0  0  0  0  0  0
    0.6413   -1.1706    9.3052 H   0  0  0  1  0  0  0  0  0  0  0  0
   -1.3081   -3.5460    8.3488 O   0  0  0  1  0  0  0  0  0  0  0  0
    0.1860   -3.4423   10.2525 O   0  0  0  1  0  0  0  0  0  0  0  0
  1  2  1  0  0  0  0
  1  4  1  0  0  0  0
  1  5  1  0  0  0  0
  2  3  1  0  0  0  0
  2  7  1  0  0  0  0
  2  9  1  0  0  0  0
  4 10  2  0  0  0  0
  4 11  1  0  0  0  0
  5  6  1  0  0  0  0
  5 12  2  0  0  0  0
  7  8  1  0  0  0  0
  7 13  1  0  0  0  0
  7 15  1  0  0  0  0
  9 17  1  0  0  0  0
 10 12  1  0  0  0  0
 10 19  1  0  0  0  0
 11 20  2  0  0  0  0
 13 14  1  0  0  0  0
 13 17  1  0  0  0  0
 13 22  1  0  0  0  0
 15 16  1  0  0  0  0
 17 18  1  0  0  0  0
 17 23  1  0  0  0  0
 19 26  2  0  0  0  0
 19 27  1  0  0  0  0
 20 21  1  0  0  0  0
 20 26  1  0  0  0  0
 22 30  1  0  0  0  0
 23 24  1  0  0  0  0
 23 25  1  0  0  0  0
 23 31  1  0  0  0  0
 27 28  1  0  0  0  0
 27 29  1  0  0  0  0
 30 32  2  0  0  0  0
 30 33  1  0  0  0  0
 30 34  1  0  0  0  0
 31 35  1  0  0  0  0
 35 36  1  0  0  0  0
 35 37  1  0  0  0  0
 35 38  2  0  0  0  0
 36 39  1  0  0  0  0
 39 40  1  0  0  0  0
 39 42  2  0  0  0  0
 39 43  2  0  0  0  0
 40 41  1  0  0  0  0
M  BCL ATM N_TrTrTrPi2 C_TeTeTeTe H_S C_TrTrTrPi C_TrTrTrPi H_S C_TeTeTeTe H_S O_Te2Te2TeTe C_TrTrTrPi N_Tr2TrTrPi N_Tr2TrTrPi C_TeTeTeTe H_S O_Te2Te2TeTe H_S C_TeTeTeTe H_S C_TrTrTrPi C_TrTrTrPi H_S O_Tr2TrTrPi2 C_TeTeTeTe H_S H_S N_Tr2TrTrPi N_TrTrTrPi2 H_S H_S P_TeTeTeTePi O_Tr2TrTrPi2 O_Tr2Tr2TrPi O_Te2Te2Te2Te O_Te2Te2Te2Te P_TeTeTeTePi O_Tr2TrTrPi2 O_Te2Te2TeTe O_Tr2Tr2TrPi S_TeTeTeTePiPi O_Te2Te2TeTe H_S O_Tr2Tr2TrPi O_Tr2Tr2TrPi
M  BCL BND NonConjugatedSingleBond AromaticSingleBond AromaticSingleBond NonConjugatedSingleBond NonConjugatedSingleBondInRing NonConjugatedSingleBondInRing AromaticDoubleBond AromaticSingleBond NonConjugatedSingleBond AromaticDoubleBond NonConjugatedSingleBond NonConjugatedSingleBondInRing NonConjugatedSingleBond NonConjugatedSingleBondInRing AromaticSingleBond AromaticSingleBond AromaticDoubleBond NonConjugatedSingleBond NonConjugatedSingleBondInRing NonConjugatedSingleBond NonConjugatedSingleBond NonConjugatedSingleBond NonConjugatedSingleBond AromaticDoubleBond ConjugatedSingleBond NonConjugatedSingleBond AromaticSingleBond ConjugatedSingleBond NonConjugatedSingleBond NonConjugatedSingleBond NonConjugatedSingleBond NonConjugatedSingleBond NonConjugatedSingleBond ConjugatedDoubleBond ConjugatedSingleBond ConjugatedSingleBond ConjugatedSingleBond ConjugatedSingleBond ConjugatedSingleBond ConjugatedDoubleBond ConjugatedSingleBond ConjugatedSingleBond ConjugatedDoubleBond ConjugatedDoubleBond NonConjugatedSingleBond
M  BCL CHI   2   R   7   R  13   S  17   S  35   R
M  BCL DBI - - - - - - - -
M  END
> <ConfClashScore>
0 

> <ConfOneFourInteractionScore>
-0.966255 

> <ConfScore>
-0.302838 

> <ConfScorePBest>
0.0136565 

> <ConfTolerance>
1.07339 

$$$$
ChEBI.****
  PyMOL2.5          3D                             0

 43 45  0  0  0  0  0  0  0  0999 V2000
    1.0749    0.7947    7.1000 N   0  0  0  1  0  0  0  0  0  0  0  0
    0.4306    0.5802    5.7884 C   0  0  0  1  0  0  0  0  0  0  0  0
   -0.6206    0.7612    5.8730 H   0  0  0  1  0  0  0  0  0  0  0  0
    0.8578    1.8301    7.9722 C   0  0  0  1  0  0  0  0  0  0  0  0
    1.9235   -0.0552    7.7405 C   0  0  0  1  0  0  0  0  0  0  0  0
    2.2683   -0.9346    7.3053 H   0  0  0  1  0  0  0  0  0  0  0  0
    0.6882   -0.8521    5.2943 C   0  0  0  1  0  0  0  0  0  0  0  0
    0.7559   -1.5369    6.1136 H   0  0  0  1  0  0  0  0  0  0  0  0
    0.9935    1.4247    4.8262 O   0  0  0  1  0  0  0  0  0  0  0  0
    1.6070    1.5205    9.1153 C   0  0  0  1  0  0  0  0  0  0  0  0
    0.0871    2.9034    7.7909 N   0  0  0  1  0  0  0  0  0  0  0  0
    2.2721    0.3166    8.9423 N   0  0  0  1  0  0  0  0  0  0  0  0
    2.0209   -0.7210    4.5782 C   0  0  0  1  0  0  0  0  0  0  0  0
    2.0985   -1.4254    3.7766 H   0  0  0  1  0  0  0  0  0  0  0  0
   -0.3383   -1.2806    4.3983 O   0  0  0  1  0  0  0  0  0  0  0  0
   -0.1050   -1.0315    3.5010 H   0  0  0  1  0  0  0  0  0  0  0  0
    1.9810    0.7315    4.0424 C   0  0  0  1  0  0  0  0  0  0  0  0
    1.7042    0.7374    3.0089 H   0  0  0  1  0  0  0  0  0  0  0  0
    1.5227    2.4418   10.1550 C   0  0  0  1  0  0  0  0  0  0  0  0
    0.1063    3.6974    8.8544 C   0  0  0  1  0  0  0  0  0  0  0  0
   -0.4708    4.5596    8.7825 H   0  0  0  1  0  0  0  0  0  0  0  0
    3.1284   -0.9088    5.4969 O   0  0  0  1  0  0  0  0  0  0  0  0
    3.3169    1.3789    4.2044 C   0  0  0  1  0  0  0  0  0  0  0  0
    4.0498    0.8504    3.6315 H   0  0  0  1  0  0  0  0  0  0  0  0
    3.6002    1.3765    5.2362 H   0  0  0  1  0  0  0  0  0  0  0  0
    0.7701    3.5378   10.0103 N   0  0  0  1  0  0  0  0  0  0  0  0
    2.1817    2.2871   11.3460 N   0  0  0  1  0  0  0  0  0  0  0  0
    2.8020    1.5384   11.4692 H   0  0  0  1  0  0  0  0  0  0  0  0
    2.0329    2.9250   12.0749 H   0  0  0  1  0  0  0  0  0  0  0  0
    3.7961   -2.3738    5.8093 P   0  0  0  1  0  0  0  0  0  0  0  0
    3.2061    2.7404    3.7270 O   0  0  0  1  0  0  0  0  0  0  0  0
    2.8915   -3.4169    6.3422 O   0  0  0  1  0  0  0  0  0  0  0  0
    5.0831   -2.1498    6.7673 O   0  5  0  1  0  0  0  0  0  0  0  0
    4.5059   -2.8877    4.4468 O   0  5  0  1  0  0  0  0  0  0  0  0
    4.4711    3.6729    3.6477 P   0  0  0  1  0  0  0  0  0  0  0  0
    5.1039    3.8007    5.1353 O   0  0  0  1  0  0  0  0  0  0  0  0
    3.9214    5.0288    3.2111 O   0  0  0  0  0  0  0  0  0  0  0  0
    5.5413    3.1393    2.7571 O   0  0  0  1  0  0  0  0  0  0  0  0
    6.5408    4.4556    5.4689 S   0  0  0  1  0  0  0  0  0  0  0  0
    7.4501    3.9848    4.4451 O   0  0  0  1  0  0  0  0  0  0  0  0
    7.2368    3.0763    4.2202 H   0  0  0  1  0  0  0  0  0  0  0  0
    6.3505    5.8710    5.4723 O   0  0  0  1  0  0  0  0  0  0  0  0
    6.7316    3.8314    6.7355 O   0  0  0  1  0  0  0  0  0  0  0  0
  1  2  1  0  0  0  0
  1  4  1  0  0  0  0
  1  5  1  0  0  0  0
  2  3  1  0  0  0  0
  2  7  1  0  0  0  0
  2  9  1  0  0  0  0
  4 10  2  0  0  0  0
  4 11  1  0  0  0  0
  5  6  1  0  0  0  0
  5 12  2  0  0  0  0
  7  8  1  0  0  0  0
  7 13  1  0  0  0  0
  7 15  1  0  0  0  0
  9 17  1  0  0  0  0
 10 12  1  0  0  0  0
 10 19  1  0  0  0  0
 11 20  2  0  0  0  0
 13 14  1  0  0  0  0
 13 17  1  0  0  0  0
 13 22  1  0  0  0  0
 15 16  1  0  0  0  0
 17 18  1  0  0  0  0
 17 23  1  0  0  0  0
 19 26  2  0  0  0  0
 19 27  1  0  0  0  0
 20 21  1  0  0  0  0
 20 26  1  0  0  0  0
 22 30  1  0  0  0  0
 23 24  1  0  0  0  0
 23 25  1  0  0  0  0
 23 31  1  0  0  0  0
 27 28  1  0  0  0  0
 27 29  1  0  0  0  0
 30 32  2  0  0  0  0
 30 33  1  0  0  0  0
 30 34  1  0  0  0  0
 31 35  1  0  0  0  0
 35 36  1  0  0  0  0
 35 37  1  0  0  0  0
 35 38  2  0  0  0  0
 36 39  1  0  0  0  0
 39 40  1  0  0  0  0
 39 42  2  0  0  0  0
 39 43  2  0  0  0  0
 40 41  1  0  0  0  0
M  BCL ATM N_TrTrTrPi2 C_TeTeTeTe H_S C_TrTrTrPi C_TrTrTrPi H_S C_TeTeTeTe H_S O_Te2Te2TeTe C_TrTrTrPi N_Tr2TrTrPi N_Tr2TrTrPi C_TeTeTeTe H_S O_Te2Te2TeTe H_S C_TeTeTeTe H_S C_TrTrTrPi C_TrTrTrPi H_S O_Tr2TrTrPi2 C_TeTeTeTe H_S H_S N_Tr2TrTrPi N_TrTrTrPi2 H_S H_S P_TeTeTeTePi O_Tr2TrTrPi2 O_Tr2Tr2TrPi O_Te2Te2Te2Te O_Te2Te2Te2Te P_TeTeTeTePi O_Tr2TrTrPi2 O_Te2Te2TeTe O_Tr2Tr2TrPi S_TeTeTeTePiPi O_Te2Te2TeTe H_S O_Tr2Tr2TrPi O_Tr2Tr2TrPi
M  BCL BND NonConjugatedSingleBond AromaticSingleBond AromaticSingleBond NonConjugatedSingleBond NonConjugatedSingleBondInRing NonConjugatedSingleBondInRing AromaticDoubleBond AromaticSingleBond NonConjugatedSingleBond AromaticDoubleBond NonConjugatedSingleBond NonConjugatedSingleBondInRing NonConjugatedSingleBond NonConjugatedSingleBondInRing AromaticSingleBond AromaticSingleBond AromaticDoubleBond NonConjugatedSingleBond NonConjugatedSingleBondInRing NonConjugatedSingleBond NonConjugatedSingleBond NonConjugatedSingleBond NonConjugatedSingleBond AromaticDoubleBond ConjugatedSingleBond NonConjugatedSingleBond AromaticSingleBond ConjugatedSingleBond NonConjugatedSingleBond NonConjugatedSingleBond NonConjugatedSingleBond NonConjugatedSingleBond NonConjugatedSingleBond ConjugatedDoubleBond ConjugatedSingleBond ConjugatedSingleBond ConjugatedSingleBond ConjugatedSingleBond ConjugatedSingleBond ConjugatedDoubleBond ConjugatedSingleBond ConjugatedSingleBond ConjugatedDoubleBond ConjugatedDoubleBond NonConjugatedSingleBond
M  BCL CHI   2   R   7   R  13   S  17   S  35   R
M  BCL DBI - - - - - - - -
M  END
> <ConfClashScore>
0 

> <ConfOneFourInteractionScore>
-0.981425 

> <ConfScore>
-0.301465 

> <ConfScorePBest>
0.0135535 

> <ConfTolerance>
1.02391 

$$$$
ChEBI.****
  PyMOL2.5          3D                             0

 43 45  0  0  0  0  0  0  0  0999 V2000
    1.0534    0.7834    7.0849 N   0  0  0  1  0  0  0  0  0  0  0  0
    0.4658    0.6355    5.7329 C   0  0  0  1  0  0  0  0  0  0  0  0
   -0.6012    0.6081    5.8082 H   0  0  0  1  0  0  0  0  0  0  0  0
    0.8491    1.8125    7.9674 C   0  0  0  1  0  0  0  0  0  0  0  0
    1.9075   -0.0734    7.7088 C   0  0  0  1  0  0  0  0  0  0  0  0
    2.2449   -0.9502    7.2628 H   0  0  0  1  0  0  0  0  0  0  0  0
    0.9871   -0.6445    5.0607 C   0  0  0  1  0  0  0  0  0  0  0  0
    1.1756   -1.4108    5.7833 H   0  0  0  1  0  0  0  0  0  0  0  0
    0.8682    1.6920    4.9096 O   0  0  0  1  0  0  0  0  0  0  0  0
    1.6110    1.4925    9.0992 C   0  0  0  1  0  0  0  0  0  0  0  0
    0.0789    2.8890    7.8035 N   0  0  0  1  0  0  0  0  0  0  0  0
    2.2711    0.2884    8.9091 N   0  0  0  1  0  0  0  0  0  0  0  0
    2.2767   -0.1756    4.4101 C   0  0  0  1  0  0  0  0  0  0  0  0
    2.4881   -0.7378    3.5246 H   0  0  0  1  0  0  0  0  0  0  0  0
    0.0630   -1.1269    4.0842 O   0  0  0  1  0  0  0  0  0  0  0  0
    0.3622   -0.8746    3.2076 H   0  0  0  1  0  0  0  0  0  0  0  0
    1.9716    1.3045    4.0715 C   0  0  0  1  0  0  0  0  0  0  0  0
    1.7046    1.4008    3.0399 H   0  0  0  1  0  0  0  0  0  0  0  0
    1.5412    2.4060   10.1468 C   0  0  0  1  0  0  0  0  0  0  0  0
    0.1126    3.6748    8.8727 C   0  0  0  1  0  0  0  0  0  0  0  0
   -0.4633    4.5388    8.8142 H   0  0  0  1  0  0  0  0  0  0  0  0
    3.3944   -0.2816    5.3296 O   0  0  0  1  0  0  0  0  0  0  0  0
    3.1635    2.1567    4.3596 C   0  0  0  1  0  0  0  0  0  0  0  0
    3.3450    2.1850    5.4138 H   0  0  0  1  0  0  0  0  0  0  0  0
    2.9967    3.1503    3.9992 H   0  0  0  1  0  0  0  0  0  0  0  0
    0.7895    3.5048   10.0193 N   0  0  0  1  0  0  0  0  0  0  0  0
    2.1845    2.3311   11.3857 N   0  0  0  1  0  0  0  0  0  0  0  0
    2.7618    1.5667   11.5926 H   0  0  0  1  0  0  0  0  0  0  0  0
    2.0582    3.0430   12.0472 H   0  0  0  1  0  0  0  0  0  0  0  0
    4.8092   -0.9639    4.8579 P   0  0  0  1  0  0  0  0  0  0  0  0
    4.2898    1.5740    3.6847 O   0  0  0  1  0  0  0  0  0  0  0  0
    5.2378   -0.6696    3.4722 O   0  0  0  1  0  0  0  0  0  0  0  0
    4.7653   -2.5660    5.0939 O   0  5  0  1  0  0  0  0  0  0  0  0
    6.0367   -0.5557    5.8331 O   0  5  0  1  0  0  0  0  0  0  0  0
    5.7118    2.2538    3.5215 P   0  0  0  1  0  0  0  0  0  0  0  0
    5.4104    3.5305    2.5683 O   0  0  0  1  0  0  0  0  0  0  0  0
    6.5813    1.2911    2.8019 O   0  0  0  0  0  0  0  0  0  0  0  0
    6.1755    2.8122    4.8113 O   0  0  0  1  0  0  0  0  0  0  0  0
    4.5583    4.8781    3.0347 S   0  0  0  1  0  0  0  0  0  0  0  0
    3.4799    4.7688    2.0116 O   0  0  0  1  0  0  0  0  0  0  0  0
    2.6843    4.4207    2.4206 H   0  0  0  1  0  0  0  0  0  0  0  0
    4.2046    4.7141    4.3216 O   0  0  0  1  0  0  0  0  0  0  0  0
    5.4009    5.9273    2.5812 O   0  0  0  1  0  0  0  0  0  0  0  0
  1  2  1  0  0  0  0
  1  4  1  0  0  0  0
  1  5  1  0  0  0  0
  2  3  1  0  0  0  0
  2  7  1  0  0  0  0
  2  9  1  0  0  0  0
  4 10  2  0  0  0  0
  4 11  1  0  0  0  0
  5  6  1  0  0  0  0
  5 12  2  0  0  0  0
  7  8  1  0  0  0  0
  7 13  1  0  0  0  0
  7 15  1  0  0  0  0
  9 17  1  0  0  0  0
 10 12  1  0  0  0  0
 10 19  1  0  0  0  0
 11 20  2  0  0  0  0
 13 14  1  0  0  0  0
 13 17  1  0  0  0  0
 13 22  1  0  0  0  0
 15 16  1  0  0  0  0
 17 18  1  0  0  0  0
 17 23  1  0  0  0  0
 19 26  2  0  0  0  0
 19 27  1  0  0  0  0
 20 21  1  0  0  0  0
 20 26  1  0  0  0  0
 22 30  1  0  0  0  0
 23 24  1  0  0  0  0
 23 25  1  0  0  0  0
 23 31  1  0  0  0  0
 27 28  1  0  0  0  0
 27 29  1  0  0  0  0
 30 32  2  0  0  0  0
 30 33  1  0  0  0  0
 30 34  1  0  0  0  0
 31 35  1  0  0  0  0
 35 36  1  0  0  0  0
 35 37  1  0  0  0  0
 35 38  2  0  0  0  0
 36 39  1  0  0  0  0
 39 40  1  0  0  0  0
 39 42  2  0  0  0  0
 39 43  2  0  0  0  0
 40 41  1  0  0  0  0
M  BCL ATM N_TrTrTrPi2 C_TeTeTeTe H_S C_TrTrTrPi C_TrTrTrPi H_S C_TeTeTeTe H_S O_Te2Te2TeTe C_TrTrTrPi N_Tr2TrTrPi N_Tr2TrTrPi C_TeTeTeTe H_S O_Te2Te2TeTe H_S C_TeTeTeTe H_S C_TrTrTrPi C_TrTrTrPi H_S O_Tr2TrTrPi2 C_TeTeTeTe H_S H_S N_Tr2TrTrPi N_TrTrTrPi2 H_S H_S P_TeTeTeTePi O_Tr2TrTrPi2 O_Tr2Tr2TrPi O_Te2Te2Te2Te O_Te2Te2Te2Te P_TeTeTeTePi O_Tr2TrTrPi2 O_Te2Te2TeTe O_Tr2Tr2TrPi S_TeTeTeTePiPi O_Te2Te2TeTe H_S O_Tr2Tr2TrPi O_Tr2Tr2TrPi
M  BCL BND NonConjugatedSingleBond AromaticSingleBond AromaticSingleBond NonConjugatedSingleBond NonConjugatedSingleBondInRing NonConjugatedSingleBondInRing AromaticDoubleBond AromaticSingleBond NonConjugatedSingleBond AromaticDoubleBond NonConjugatedSingleBond NonConjugatedSingleBondInRing NonConjugatedSingleBond NonConjugatedSingleBondInRing AromaticSingleBond AromaticSingleBond AromaticDoubleBond NonConjugatedSingleBond NonConjugatedSingleBondInRing NonConjugatedSingleBond NonConjugatedSingleBond NonConjugatedSingleBond NonConjugatedSingleBond AromaticDoubleBond ConjugatedSingleBond NonConjugatedSingleBond AromaticSingleBond ConjugatedSingleBond NonConjugatedSingleBond NonConjugatedSingleBond NonConjugatedSingleBond NonConjugatedSingleBond NonConjugatedSingleBond ConjugatedDoubleBond ConjugatedSingleBond ConjugatedSingleBond ConjugatedSingleBond ConjugatedSingleBond ConjugatedSingleBond ConjugatedDoubleBond ConjugatedSingleBond ConjugatedSingleBond ConjugatedDoubleBond ConjugatedDoubleBond NonConjugatedSingleBond
M  BCL CHI   2   R   7   R  13   S  17   S  35   R
M  BCL DBI - - - - - - - -
M  END
> <ConfClashScore>
0 

> <ConfOneFourInteractionScore>
-0.975127 

> <ConfScore>
-0.300355 

> <ConfScorePBest>
0.0134505 

> <ConfTolerance>
1.05267 

$$$$
ChEBI.****
  PyMOL2.5          3D                             0

 43 45  0  0  0  0  0  0  0  0999 V2000
    1.0895    0.7938    7.0808 N   0  0  0  1  0  0  0  0  0  0  0  0
    0.3969    0.6008    5.8053 C   0  0  0  1  0  0  0  0  0  0  0  0
    0.7182    1.3462    5.1081 H   0  0  0  1  0  0  0  0  0  0  0  0
    0.8650    1.8205    7.9612 C   0  0  0  1  0  0  0  0  0  0  0  0
    1.9451   -0.0546    7.7142 C   0  0  0  1  0  0  0  0  0  0  0  0
    2.2963   -0.9278    7.2718 H   0  0  0  1  0  0  0  0  0  0  0  0
   -1.1248    0.6778    6.0065 C   0  0  0  1  0  0  0  0  0  0  0  0
   -1.3762    1.3554    6.7955 H   0  0  0  1  0  0  0  0  0  0  0  0
    0.6527   -0.6786    5.3018 O   0  0  0  1  0  0  0  0  0  0  0  0
    1.6173    1.5078    9.1015 C   0  0  0  1  0  0  0  0  0  0  0  0
    0.0860    2.8893    7.7888 N   0  0  0  1  0  0  0  0  0  0  0  0
    2.2915    0.3104    8.9186 N   0  0  0  1  0  0  0  0  0  0  0  0
   -1.4829   -0.7508    6.3764 C   0  0  0  1  0  0  0  0  0  0  0  0
   -2.4741   -0.9950    6.0558 H   0  0  0  1  0  0  0  0  0  0  0  0
   -1.7842    1.0798    4.8042 O   0  0  0  1  0  0  0  0  0  0  0  0
   -2.3832    1.8055    4.9944 H   0  0  0  1  0  0  0  0  0  0  0  0
   -0.4270   -1.5800    5.6044 C   0  0  0  1  0  0  0  0  0  0  0  0
   -0.8492   -1.9684    4.7013 H   0  0  0  1  0  0  0  0  0  0  0  0
    1.5265    2.4202   10.1485 C   0  0  0  1  0  0  0  0  0  0  0  0
    0.0997    3.6751    8.8586 C   0  0  0  1  0  0  0  0  0  0  0  0
   -0.4840    4.5333    8.7938 H   0  0  0  1  0  0  0  0  0  0  0  0
   -1.3704   -0.9639    7.8074 O   0  0  0  1  0  0  0  0  0  0  0  0
    0.0637   -2.7082    6.4508 C   0  0  0  1  0  0  0  0  0  0  0  0
    0.4685   -2.3283    7.3655 H   0  0  0  1  0  0  0  0  0  0  0  0
    0.8187   -3.2557    5.9262 H   0  0  0  1  0  0  0  0  0  0  0  0
    0.7653    3.5115   10.0128 N   0  0  0  1  0  0  0  0  0  0  0  0
    2.1721    2.3128   11.3755 N   0  0  0  1  0  0  0  0  0  0  0  0
    2.1299    3.0518   12.0177 H   0  0  0  1  0  0  0  0  0  0  0  0
    2.6692    1.4981   11.5980 H   0  0  0  1  0  0  0  0  0  0  0  0
   -2.7091   -1.0968    8.7455 P   0  0  0  1  0  0  0  0  0  0  0  0
   -1.0644   -3.5699    6.7314 O   0  0  0  1  0  0  0  0  0  0  0  0
   -3.6999   -0.0495    8.4109 O   0  0  0  1  0  0  0  0  0  0  0  0
   -2.2041   -1.1875   10.2821 O   0  5  0  1  0  0  0  0  0  0  0  0
   -3.2172   -2.6217    8.5439 O   0  5  0  1  0  0  0  0  0  0  0  0
   -0.9229   -5.0040    7.4916 P   0  0  0  1  0  0  0  0  0  0  0  0
    0.2795   -5.6288    6.6009 O   0  0  0  1  0  0  0  0  0  0  0  0
   -2.1785   -5.7761    7.3074 O   0  0  0  0  0  0  0  0  0  0  0  0
   -0.3823   -4.7671    8.8534 O   0  0  0  1  0  0  0  0  0  0  0  0
    1.8468   -5.4319    6.9109 S   0  0  0  1  0  0  0  0  0  0  0  0
    2.3670   -5.1688    5.5869 O   0  0  0  1  0  0  0  0  0  0  0  0
    2.4232   -4.2207    5.4472 H   0  0  0  1  0  0  0  0  0  0  0  0
    1.9419   -4.3052    7.7955 O   0  0  0  1  0  0  0  0  0  0  0  0
    2.2984   -6.6681    7.4811 O   0  0  0  1  0  0  0  0  0  0  0  0
  1  2  1  0  0  0  0
  1  4  1  0  0  0  0
  1  5  1  0  0  0  0
  2  3  1  0  0  0  0
  2  7  1  0  0  0  0
  2  9  1  0  0  0  0
  4 10  2  0  0  0  0
  4 11  1  0  0  0  0
  5  6  1  0  0  0  0
  5 12  2  0  0  0  0
  7  8  1  0  0  0  0
  7 13  1  0  0  0  0
  7 15  1  0  0  0  0
  9 17  1  0  0  0  0
 10 12  1  0  0  0  0
 10 19  1  0  0  0  0
 11 20  2  0  0  0  0
 13 14  1  0  0  0  0
 13 17  1  0  0  0  0
 13 22  1  0  0  0  0
 15 16  1  0  0  0  0
 17 18  1  0  0  0  0
 17 23  1  0  0  0  0
 19 26  2  0  0  0  0
 19 27  1  0  0  0  0
 20 21  1  0  0  0  0
 20 26  1  0  0  0  0
 22 30  1  0  0  0  0
 23 24  1  0  0  0  0
 23 25  1  0  0  0  0
 23 31  1  0  0  0  0
 27 28  1  0  0  0  0
 27 29  1  0  0  0  0
 30 32  2  0  0  0  0
 30 33  1  0  0  0  0
 30 34  1  0  0  0  0
 31 35  1  0  0  0  0
 35 36  1  0  0  0  0
 35 37  1  0  0  0  0
 35 38  2  0  0  0  0
 36 39  1  0  0  0  0
 39 40  1  0  0  0  0
 39 42  2  0  0  0  0
 39 43  2  0  0  0  0
 40 41  1  0  0  0  0
M  BCL ATM N_TrTrTrPi2 C_TeTeTeTe H_S C_TrTrTrPi C_TrTrTrPi H_S C_TeTeTeTe H_S O_Te2Te2TeTe C_TrTrTrPi N_Tr2TrTrPi N_Tr2TrTrPi C_TeTeTeTe H_S O_Te2Te2TeTe H_S C_TeTeTeTe H_S C_TrTrTrPi C_TrTrTrPi H_S O_Tr2TrTrPi2 C_TeTeTeTe H_S H_S N_Tr2TrTrPi N_TrTrTrPi2 H_S H_S P_TeTeTeTePi O_Tr2TrTrPi2 O_Tr2Tr2TrPi O_Te2Te2Te2Te O_Te2Te2Te2Te P_TeTeTeTePi O_Tr2TrTrPi2 O_Te2Te2TeTe O_Tr2Tr2TrPi S_TeTeTeTePiPi O_Te2Te2TeTe H_S O_Tr2Tr2TrPi O_Tr2Tr2TrPi
M  BCL BND NonConjugatedSingleBond AromaticSingleBond AromaticSingleBond NonConjugatedSingleBond NonConjugatedSingleBondInRing NonConjugatedSingleBondInRing AromaticDoubleBond AromaticSingleBond NonConjugatedSingleBond AromaticDoubleBond NonConjugatedSingleBond NonConjugatedSingleBondInRing NonConjugatedSingleBond NonConjugatedSingleBondInRing AromaticSingleBond AromaticSingleBond AromaticDoubleBond NonConjugatedSingleBond NonConjugatedSingleBondInRing NonConjugatedSingleBond NonConjugatedSingleBond NonConjugatedSingleBond NonConjugatedSingleBond AromaticDoubleBond ConjugatedSingleBond NonConjugatedSingleBond AromaticSingleBond ConjugatedSingleBond NonConjugatedSingleBond NonConjugatedSingleBond NonConjugatedSingleBond NonConjugatedSingleBond NonConjugatedSingleBond ConjugatedDoubleBond ConjugatedSingleBond ConjugatedSingleBond ConjugatedSingleBond ConjugatedSingleBond ConjugatedSingleBond ConjugatedDoubleBond ConjugatedSingleBond ConjugatedSingleBond ConjugatedDoubleBond ConjugatedDoubleBond NonConjugatedSingleBond
M  BCL CHI   2   R   7   R  13   S  17   S  35   R
M  BCL DBI - - - - - - - -
M  END
> <ConfClashScore>
0 

> <ConfOneFourInteractionScore>
-0.981627 

> <ConfScore>
-0.299137 

> <ConfScorePBest>
0.0133475 

> <ConfTolerance>
0.960834 

$$$$
ChEBI.****
  PyMOL2.5          3D                             0

 43 45  0  0  0  0  0  0  0  0999 V2000
    1.1026    0.8036    7.1255 N   0  0  0  1  0  0  0  0  0  0  0  0
    0.4513    0.6059    5.8157 C   0  0  0  1  0  0  0  0  0  0  0  0
   -0.0521   -0.3382    5.8061 H   0  0  0  1  0  0  0  0  0  0  0  0
    0.8555    1.8427    7.9852 C   0  0  0  1  0  0  0  0  0  0  0  0
    1.9628   -0.0218    7.7823 C   0  0  0  1  0  0  0  0  0  0  0  0
    2.3301   -0.8979    7.3591 H   0  0  0  1  0  0  0  0  0  0  0  0
    1.4831    0.6766    4.6861 C   0  0  0  1  0  0  0  0  0  0  0  0
    2.3493    1.2256    4.9913 H   0  0  0  1  0  0  0  0  0  0  0  0
   -0.4780    1.6792    5.5441 O   0  0  0  1  0  0  0  0  0  0  0  0
    1.6001    1.5602    9.1383 C   0  0  0  1  0  0  0  0  0  0  0  0
    0.0641    2.8976    7.7861 N   0  0  0  1  0  0  0  0  0  0  0  0
    2.2920    0.3690    8.9835 N   0  0  0  1  0  0  0  0  0  0  0  0
    0.7435    1.3995    3.5911 C   0  0  0  1  0  0  0  0  0  0  0  0
    0.1548    0.7207    3.0100 H   0  0  0  1  0  0  0  0  0  0  0  0
    1.8718   -0.6316    4.2647 O   0  0  0  1  0  0  0  0  0  0  0  0
    1.6741   -0.7396    3.3315 H   0  0  0  1  0  0  0  0  0  0  0  0
   -0.1474    2.3754    4.3732 C   0  0  0  1  0  0  0  0  0  0  0  0
   -1.0274    2.6163    3.8142 H   0  0  0  1  0  0  0  0  0  0  0  0
    1.4865    2.4897   10.1679 C   0  0  0  1  0  0  0  0  0  0  0  0
    0.0565    3.7022    8.8418 C   0  0  0  1  0  0  0  0  0  0  0  0
   -0.5380    4.5513    8.7559 H   0  0  0  1  0  0  0  0  0  0  0  0
    1.6615    2.1113    2.7214 O   0  0  0  1  0  0  0  0  0  0  0  0
    0.5972    3.6291    4.6955 C   0  0  0  1  0  0  0  0  0  0  0  0
    0.8424    4.1495    3.7933 H   0  0  0  1  0  0  0  0  0  0  0  0
    1.4953    3.3930    5.2271 H   0  0  0  1  0  0  0  0  0  0  0  0
    0.7124    3.5680   10.0053 N   0  0  0  1  0  0  0  0  0  0  0  0
    2.1934    2.2219   11.2955 N   0  0  0  1  0  0  0  0  0  0  0  0
    2.1309    2.8227   12.0672 H   0  0  0  1  0  0  0  0  0  0  0  0
    2.7661    1.4278   11.3378 H   0  0  0  1  0  0  0  0  0  0  0  0
    1.7638    1.7445    1.1262 P   0  0  0  1  0  0  0  0  0  0  0  0
   -0.2622    4.4507    5.5203 O   0  0  0  1  0  0  0  0  0  0  0  0
    1.4751    0.3545    0.7079 O   0  0  0  1  0  0  0  0  0  0  0  0
    3.2221    2.2359    0.6201 O   0  5  0  1  0  0  0  0  0  0  0  0
    0.6809    2.6469    0.3277 O   0  5  0  1  0  0  0  0  0  0  0  0
    0.1833    5.8938    5.9621 P   0  0  0  1  0  0  0  0  0  0  0  0
    0.2310    6.6090    4.5108 O   0  0  0  1  0  0  0  0  0  0  0  0
    1.5514    5.7071    6.4955 O   0  0  0  0  0  0  0  0  0  0  0  0
   -0.8169    6.5952    6.7958 O   0  0  0  1  0  0  0  0  0  0  0  0
   -0.8611    7.6775    3.9736 S   0  0  0  1  0  0  0  0  0  0  0  0
   -1.1150    7.1241    2.6732 O   0  0  0  1  0  0  0  0  0  0  0  0
   -1.0573    6.1668    2.7154 H   0  0  0  1  0  0  0  0  0  0  0  0
   -1.9304    7.6025    4.8680 O   0  0  0  1  0  0  0  0  0  0  0  0
   -0.1986    8.9305    3.9476 O   0  0  0  1  0  0  0  0  0  0  0  0
  1  2  1  0  0  0  0
  1  4  1  0  0  0  0
  1  5  1  0  0  0  0
  2  3  1  0  0  0  0
  2  7  1  0  0  0  0
  2  9  1  0  0  0  0
  4 10  2  0  0  0  0
  4 11  1  0  0  0  0
  5  6  1  0  0  0  0
  5 12  2  0  0  0  0
  7  8  1  0  0  0  0
  7 13  1  0  0  0  0
  7 15  1  0  0  0  0
  9 17  1  0  0  0  0
 10 12  1  0  0  0  0
 10 19  1  0  0  0  0
 11 20  2  0  0  0  0
 13 14  1  0  0  0  0
 13 17  1  0  0  0  0
 13 22  1  0  0  0  0
 15 16  1  0  0  0  0
 17 18  1  0  0  0  0
 17 23  1  0  0  0  0
 19 26  2  0  0  0  0
 19 27  1  0  0  0  0
 20 21  1  0  0  0  0
 20 26  1  0  0  0  0
 22 30  1  0  0  0  0
 23 24  1  0  0  0  0
 23 25  1  0  0  0  0
 23 31  1  0  0  0  0
 27 28  1  0  0  0  0
 27 29  1  0  0  0  0
 30 32  2  0  0  0  0
 30 33  1  0  0  0  0
 30 34  1  0  0  0  0
 31 35  1  0  0  0  0
 35 36  1  0  0  0  0
 35 37  1  0  0  0  0
 35 38  2  0  0  0  0
 36 39  1  0  0  0  0
 39 40  1  0  0  0  0
 39 42  2  0  0  0  0
 39 43  2  0  0  0  0
 40 41  1  0  0  0  0
M  BCL ATM N_TrTrTrPi2 C_TeTeTeTe H_S C_TrTrTrPi C_TrTrTrPi H_S C_TeTeTeTe H_S O_Te2Te2TeTe C_TrTrTrPi N_Tr2TrTrPi N_Tr2TrTrPi C_TeTeTeTe H_S O_Te2Te2TeTe H_S C_TeTeTeTe H_S C_TrTrTrPi C_TrTrTrPi H_S O_Tr2TrTrPi2 C_TeTeTeTe H_S H_S N_Tr2TrTrPi N_TrTrTrPi2 H_S H_S P_TeTeTeTePi O_Tr2TrTrPi2 O_Tr2Tr2TrPi O_Te2Te2Te2Te O_Te2Te2Te2Te P_TeTeTeTePi O_Tr2TrTrPi2 O_Te2Te2TeTe O_Tr2Tr2TrPi S_TeTeTeTePiPi O_Te2Te2TeTe H_S O_Tr2Tr2TrPi O_Tr2Tr2TrPi
M  BCL BND NonConjugatedSingleBond AromaticSingleBond AromaticSingleBond NonConjugatedSingleBond NonConjugatedSingleBondInRing NonConjugatedSingleBondInRing AromaticDoubleBond AromaticSingleBond NonConjugatedSingleBond AromaticDoubleBond NonConjugatedSingleBond NonConjugatedSingleBondInRing NonConjugatedSingleBond NonConjugatedSingleBondInRing AromaticSingleBond AromaticSingleBond AromaticDoubleBond NonConjugatedSingleBond NonConjugatedSingleBondInRing NonConjugatedSingleBond NonConjugatedSingleBond NonConjugatedSingleBond NonConjugatedSingleBond AromaticDoubleBond ConjugatedSingleBond NonConjugatedSingleBond AromaticSingleBond ConjugatedSingleBond NonConjugatedSingleBond NonConjugatedSingleBond NonConjugatedSingleBond NonConjugatedSingleBond NonConjugatedSingleBond ConjugatedDoubleBond ConjugatedSingleBond ConjugatedSingleBond ConjugatedSingleBond ConjugatedSingleBond ConjugatedSingleBond ConjugatedDoubleBond ConjugatedSingleBond ConjugatedSingleBond ConjugatedDoubleBond ConjugatedDoubleBond NonConjugatedSingleBond
M  BCL CHI   2   R   7   R  13   S  17   S  35   R
M  BCL DBI - - - - - - - -
M  END
> <ConfClashScore>
0 

> <ConfOneFourInteractionScore>
-0.981627 

> <ConfScore>
-0.298007 

> <ConfScorePBest>
0.0132445 

> <ConfTolerance>
1.14525 

$$$$
ChEBI.****
  PyMOL2.5          3D                             0

 43 45  0  0  0  0  0  0  0  0999 V2000
    1.0435    0.7786    7.1260 N   0  0  0  1  0  0  0  0  0  0  0  0
    0.5988    0.6420    5.7341 C   0  0  0  1  0  0  0  0  0  0  0  0
   -0.4695    0.5903    5.7039 H   0  0  0  1  0  0  0  0  0  0  0  0
    0.8277    1.8214    7.9896 C   0  0  0  1  0  0  0  0  0  0  0  0
    1.9067   -0.0572    7.7656 C   0  0  0  1  0  0  0  0  0  0  0  0
    2.2539   -0.9382    7.3357 H   0  0  0  1  0  0  0  0  0  0  0  0
    1.1986   -0.6057    5.1155 C   0  0  0  1  0  0  0  0  0  0  0  0
    1.4776   -1.3131    5.8683 H   0  0  0  1  0  0  0  0  0  0  0  0
    1.0623    1.7603    4.9545 O   0  0  0  1  0  0  0  0  0  0  0  0
    1.5926    1.5304    9.1271 C   0  0  0  1  0  0  0  0  0  0  0  0
    0.0457    2.8862    7.8059 N   0  0  0  1  0  0  0  0  0  0  0  0
    2.2659    0.3304    8.9591 N   0  0  0  1  0  0  0  0  0  0  0  0
    2.4206   -0.0675    4.3906 C   0  0  0  1  0  0  0  0  0  0  0  0
    2.6931   -0.6945    3.5675 H   0  0  0  1  0  0  0  0  0  0  0  0
    0.2861   -1.2166    4.2020 O   0  0  0  1  0  0  0  0  0  0  0  0
   -0.3249   -0.5553    3.8690 H   0  0  0  1  0  0  0  0  0  0  0  0
    1.9249    1.2875    3.9138 C   0  0  0  1  0  0  0  0  0  0  0  0
    1.3847    1.1873    2.9957 H   0  0  0  1  0  0  0  0  0  0  0  0
    1.5125    2.4621   10.1579 C   0  0  0  1  0  0  0  0  0  0  0  0
    0.0704    3.6917    8.8606 C   0  0  0  1  0  0  0  0  0  0  0  0
   -0.5148    4.5482    8.7863 H   0  0  0  1  0  0  0  0  0  0  0  0
    3.5511    0.0697    5.2902 O   0  0  0  1  0  0  0  0  0  0  0  0
    3.0790    2.2312    3.7168 C   0  0  0  1  0  0  0  0  0  0  0  0
    3.7496    1.8510    2.9747 H   0  0  0  1  0  0  0  0  0  0  0  0
    3.6071    2.3722    4.6367 H   0  0  0  1  0  0  0  0  0  0  0  0
    0.7488    3.5501   10.0103 N   0  0  0  1  0  0  0  0  0  0  0  0
    2.2055    2.2769   11.3185 N   0  0  0  1  0  0  0  0  0  0  0  0
    2.6805    1.4344   11.4765 H   0  0  0  1  0  0  0  0  0  0  0  0
    2.2283    2.9864   11.9942 H   0  0  0  1  0  0  0  0  0  0  0  0
    5.0887    0.0175    4.7222 P   0  0  0  1  0  0  0  0  0  0  0  0
    2.4893    3.4841    3.2733 O   0  0  0  1  0  0  0  0  0  0  0  0
    5.1616   -0.8944    3.5587 O   0  0  0  1  0  0  0  0  0  0  0  0
    6.0086   -0.5239    5.9409 O   0  5  0  1  0  0  0  0  0  0  0  0
    5.6867    1.5124    4.5429 O   0  5  0  1  0  0  0  0  0  0  0  0
    3.4223    4.7307    2.8355 P   0  0  0  1  0  0  0  0  0  0  0  0
    4.3730    4.9660    4.1956 O   0  0  0  1  0  0  0  0  0  0  0  0
    2.5104    5.8774    2.5304 O   0  0  0  0  0  0  0  0  0  0  0  0
    4.2216    4.3064    1.7020 O   0  0  0  1  0  0  0  0  0  0  0  0
    4.2358    4.8481    5.7957 S   0  0  0  1  0  0  0  0  0  0  0  0
    5.1822    3.7775    6.0590 O   0  0  0  1  0  0  0  0  0  0  0  0
    5.9658    4.1388    6.4798 H   0  0  0  1  0  0  0  0  0  0  0  0
    4.6338    6.1252    6.3432 O   0  0  0  1  0  0  0  0  0  0  0  0
    2.8554    4.5301    6.0808 O   0  0  0  1  0  0  0  0  0  0  0  0
  1  2  1  0  0  0  0
  1  4  1  0  0  0  0
  1  5  1  0  0  0  0
  2  3  1  0  0  0  0
  2  7  1  0  0  0  0
  2  9  1  0  0  0  0
  4 10  2  0  0  0  0
  4 11  1  0  0  0  0
  5  6  1  0  0  0  0
  5 12  2  0  0  0  0
  7  8  1  0  0  0  0
  7 13  1  0  0  0  0
  7 15  1  0  0  0  0
  9 17  1  0  0  0  0
 10 12  1  0  0  0  0
 10 19  1  0  0  0  0
 11 20  2  0  0  0  0
 13 14  1  0  0  0  0
 13 17  1  0  0  0  0
 13 22  1  0  0  0  0
 15 16  1  0  0  0  0
 17 18  1  0  0  0  0
 17 23  1  0  0  0  0
 19 26  2  0  0  0  0
 19 27  1  0  0  0  0
 20 21  1  0  0  0  0
 20 26  1  0  0  0  0
 22 30  1  0  0  0  0
 23 24  1  0  0  0  0
 23 25  1  0  0  0  0
 23 31  1  0  0  0  0
 27 28  1  0  0  0  0
 27 29  1  0  0  0  0
 30 32  2  0  0  0  0
 30 33  1  0  0  0  0
 30 34  1  0  0  0  0
 31 35  1  0  0  0  0
 35 36  1  0  0  0  0
 35 37  1  0  0  0  0
 35 38  2  0  0  0  0
 36 39  1  0  0  0  0
 39 40  1  0  0  0  0
 39 42  2  0  0  0  0
 39 43  2  0  0  0  0
 40 41  1  0  0  0  0
M  BCL ATM N_TrTrTrPi2 C_TeTeTeTe H_S C_TrTrTrPi C_TrTrTrPi H_S C_TeTeTeTe H_S O_Te2Te2TeTe C_TrTrTrPi N_Tr2TrTrPi N_Tr2TrTrPi C_TeTeTeTe H_S O_Te2Te2TeTe H_S C_TeTeTeTe H_S C_TrTrTrPi C_TrTrTrPi H_S O_Tr2TrTrPi2 C_TeTeTeTe H_S H_S N_Tr2TrTrPi N_TrTrTrPi2 H_S H_S P_TeTeTeTePi O_Tr2TrTrPi2 O_Tr2Tr2TrPi O_Te2Te2Te2Te O_Te2Te2Te2Te P_TeTeTeTePi O_Tr2TrTrPi2 O_Te2Te2TeTe O_Tr2Tr2TrPi S_TeTeTeTePiPi O_Te2Te2TeTe H_S O_Tr2Tr2TrPi O_Tr2Tr2TrPi
M  BCL BND NonConjugatedSingleBond AromaticSingleBond AromaticSingleBond NonConjugatedSingleBond NonConjugatedSingleBondInRing NonConjugatedSingleBondInRing AromaticDoubleBond AromaticSingleBond NonConjugatedSingleBond AromaticDoubleBond NonConjugatedSingleBond NonConjugatedSingleBondInRing NonConjugatedSingleBond NonConjugatedSingleBondInRing AromaticSingleBond AromaticSingleBond AromaticDoubleBond NonConjugatedSingleBond NonConjugatedSingleBondInRing NonConjugatedSingleBond NonConjugatedSingleBond NonConjugatedSingleBond NonConjugatedSingleBond AromaticDoubleBond ConjugatedSingleBond NonConjugatedSingleBond AromaticSingleBond ConjugatedSingleBond NonConjugatedSingleBond NonConjugatedSingleBond NonConjugatedSingleBond NonConjugatedSingleBond NonConjugatedSingleBond ConjugatedDoubleBond ConjugatedSingleBond ConjugatedSingleBond ConjugatedSingleBond ConjugatedSingleBond ConjugatedSingleBond ConjugatedDoubleBond ConjugatedSingleBond ConjugatedSingleBond ConjugatedDoubleBond ConjugatedDoubleBond NonConjugatedSingleBond
M  BCL CHI   2   R   7   R  13   S  17   S  35   R
M  BCL DBI - - - - - - - -
M  END
> <ConfClashScore>
0 

> <ConfOneFourInteractionScore>
-0.979564 

> <ConfScore>
-0.29784 

> <ConfScorePBest>
0.0131415 

> <ConfTolerance>
1.12257 

$$$$
ChEBI.****
  PyMOL2.5          3D                             0

 43 45  0  0  0  0  0  0  0  0999 V2000
    1.0759    0.7949    7.1007 N   0  0  0  1  0  0  0  0  0  0  0  0
    0.4258    0.5782    5.7767 C   0  0  0  1  0  0  0  0  0  0  0  0
    0.7235    1.3531    5.1015 H   0  0  0  1  0  0  0  0  0  0  0  0
    0.8584    1.8301    7.9729 C   0  0  0  1  0  0  0  0  0  0  0  0
    1.9249   -0.0547    7.7413 C   0  0  0  1  0  0  0  0  0  0  0  0
    2.2700   -0.9339    7.3060 H   0  0  0  1  0  0  0  0  0  0  0  0
   -1.0966    0.5586    5.9274 C   0  0  0  1  0  0  0  0  0  0  0  0
   -1.3916    0.1852    6.8858 H   0  0  0  1  0  0  0  0  0  0  0  0
    0.7811   -0.7055    5.2506 O   0  0  0  1  0  0  0  0  0  0  0  0
    1.6075    1.5208    9.1161 C   0  0  0  1  0  0  0  0  0  0  0  0
    0.0872    2.9031    7.7917 N   0  0  0  1  0  0  0  0  0  0  0  0
    2.2731    0.3172    8.9431 N   0  0  0  1  0  0  0  0  0  0  0  0
   -1.4866   -0.3986    4.8108 C   0  0  0  1  0  0  0  0  0  0  0  0
   -1.5920    0.1282    3.8854 H   0  0  0  1  0  0  0  0  0  0  0  0
   -1.6601    1.8557    5.7269 O   0  0  0  1  0  0  0  0  0  0  0  0
   -2.2267    1.8426    4.9521 H   0  0  0  1  0  0  0  0  0  0  0  0
   -0.3866   -1.3658    4.7288 C   0  0  0  1  0  0  0  0  0  0  0  0
   -0.2238   -1.6543    3.7114 H   0  0  0  1  0  0  0  0  0  0  0  0
    1.5227    2.4420   10.1559 C   0  0  0  1  0  0  0  0  0  0  0  0
    0.1060    3.6971    8.8552 C   0  0  0  1  0  0  0  0  0  0  0  0
   -0.4715    4.5590    8.7833 H   0  0  0  1  0  0  0  0  0  0  0  0
   -2.7196   -1.0645    5.1267 O   0  0  0  1  0  0  0  0  0  0  0  0
   -0.7047   -2.5840    5.5512 C   0  0  0  1  0  0  0  0  0  0  0  0
   -1.6582   -2.9828    5.2742 H   0  0  0  1  0  0  0  0  0  0  0  0
   -0.7085   -2.3403    6.5931 H   0  0  0  1  0  0  0  0  0  0  0  0
    0.7696    3.5377   10.0111 N   0  0  0  1  0  0  0  0  0  0  0  0
    2.1817    2.2874   11.3470 N   0  0  0  1  0  0  0  0  0  0  0  0
    2.7944    1.5331   11.4737 H   0  0  0  1  0  0  0  0  0  0  0  0
    2.0404    2.9311   12.0723 H   0  0  0  1  0  0  0  0  0  0  0  0
   -3.7567   -1.7086    4.0317 P   0  0  0  1  0  0  0  0  0  0  0  0
    0.3373   -3.5294    5.2615 O   0  0  0  1  0  0  0  0  0  0  0  0
   -3.1609   -2.6401    3.0480 O   0  0  0  1  0  0  0  0  0  0  0  0
   -4.5606   -0.5320    3.2612 O   0  5  0  1  0  0  0  0  0  0  0  0
   -4.9857   -2.4887    4.7427 O   0  5  0  1  0  0  0  0  0  0  0  0
    0.4928   -4.9710    5.9385 P   0  0  0  1  0  0  0  0  0  0  0  0
    1.1579   -4.6588    7.4449 O   0  0  0  1  0  0  0  0  0  0  0  0
    1.5260   -5.7769    5.2433 O   0  0  0  0  0  0  0  0  0  0  0  0
   -0.8735   -5.4780    6.0721 O   0  0  0  1  0  0  0  0  0  0  0  0
    2.5899   -4.3060    8.0732 S   0  0  0  1  0  0  0  0  0  0  0  0
    3.4133   -3.8127    6.9871 O   0  0  0  1  0  0  0  0  0  0  0  0
    3.3679   -2.8542    6.9604 H   0  0  0  1  0  0  0  0  0  0  0  0
    2.2266   -3.2825    9.0219 O   0  0  0  1  0  0  0  0  0  0  0  0
    3.1042   -5.5120    8.6520 O   0  0  0  1  0  0  0  0  0  0  0  0
  1  2  1  0  0  0  0
  1  4  1  0  0  0  0
  1  5  1  0  0  0  0
  2  3  1  0  0  0  0
  2  7  1  0  0  0  0
  2  9  1  0  0  0  0
  4 10  2  0  0  0  0
  4 11  1  0  0  0  0
  5  6  1  0  0  0  0
  5 12  2  0  0  0  0
  7  8  1  0  0  0  0
  7 13  1  0  0  0  0
  7 15  1  0  0  0  0
  9 17  1  0  0  0  0
 10 12  1  0  0  0  0
 10 19  1  0  0  0  0
 11 20  2  0  0  0  0
 13 14  1  0  0  0  0
 13 17  1  0  0  0  0
 13 22  1  0  0  0  0
 15 16  1  0  0  0  0
 17 18  1  0  0  0  0
 17 23  1  0  0  0  0
 19 26  2  0  0  0  0
 19 27  1  0  0  0  0
 20 21  1  0  0  0  0
 20 26  1  0  0  0  0
 22 30  1  0  0  0  0
 23 24  1  0  0  0  0
 23 25  1  0  0  0  0
 23 31  1  0  0  0  0
 27 28  1  0  0  0  0
 27 29  1  0  0  0  0
 30 32  2  0  0  0  0
 30 33  1  0  0  0  0
 30 34  1  0  0  0  0
 31 35  1  0  0  0  0
 35 36  1  0  0  0  0
 35 37  1  0  0  0  0
 35 38  2  0  0  0  0
 36 39  1  0  0  0  0
 39 40  1  0  0  0  0
 39 42  2  0  0  0  0
 39 43  2  0  0  0  0
 40 41  1  0  0  0  0
M  BCL ATM N_TrTrTrPi2 C_TeTeTeTe H_S C_TrTrTrPi C_TrTrTrPi H_S C_TeTeTeTe H_S O_Te2Te2TeTe C_TrTrTrPi N_Tr2TrTrPi N_Tr2TrTrPi C_TeTeTeTe H_S O_Te2Te2TeTe H_S C_TeTeTeTe H_S C_TrTrTrPi C_TrTrTrPi H_S O_Tr2TrTrPi2 C_TeTeTeTe H_S H_S N_Tr2TrTrPi N_TrTrTrPi2 H_S H_S P_TeTeTeTePi O_Tr2TrTrPi2 O_Tr2Tr2TrPi O_Te2Te2Te2Te O_Te2Te2Te2Te P_TeTeTeTePi O_Tr2TrTrPi2 O_Te2Te2TeTe O_Tr2Tr2TrPi S_TeTeTeTePiPi O_Te2Te2TeTe H_S O_Tr2Tr2TrPi O_Tr2Tr2TrPi
M  BCL BND NonConjugatedSingleBond AromaticSingleBond AromaticSingleBond NonConjugatedSingleBond NonConjugatedSingleBondInRing NonConjugatedSingleBondInRing AromaticDoubleBond AromaticSingleBond NonConjugatedSingleBond AromaticDoubleBond NonConjugatedSingleBond NonConjugatedSingleBondInRing NonConjugatedSingleBond NonConjugatedSingleBondInRing AromaticSingleBond AromaticSingleBond AromaticDoubleBond NonConjugatedSingleBond NonConjugatedSingleBondInRing NonConjugatedSingleBond NonConjugatedSingleBond NonConjugatedSingleBond NonConjugatedSingleBond AromaticDoubleBond ConjugatedSingleBond NonConjugatedSingleBond AromaticSingleBond ConjugatedSingleBond NonConjugatedSingleBond NonConjugatedSingleBond NonConjugatedSingleBond NonConjugatedSingleBond NonConjugatedSingleBond ConjugatedDoubleBond ConjugatedSingleBond ConjugatedSingleBond ConjugatedSingleBond ConjugatedSingleBond ConjugatedSingleBond ConjugatedDoubleBond ConjugatedSingleBond ConjugatedSingleBond ConjugatedDoubleBond ConjugatedDoubleBond NonConjugatedSingleBond
M  BCL CHI   2   R   7   R  13   S  17   S  35   R
M  BCL DBI - - - - - - - -
M  END
> <ConfClashScore>
0 

> <ConfOneFourInteractionScore>
-0.974158 

> <ConfScore>
-0.291213 

> <ConfScorePBest>
0.0130385 

> <ConfTolerance>
0.968778 

$$$$
ChEBI.****
  PyMOL2.5          3D                             0

 43 45  0  0  0  0  0  0  0  0999 V2000
    1.0665    0.7870    7.1159 N   0  0  0  1  0  0  0  0  0  0  0  0
    0.5002    0.6152    5.7777 C   0  0  0  1  0  0  0  0  0  0  0  0
   -0.0308    1.5011    5.4981 H   0  0  0  1  0  0  0  0  0  0  0  0
    0.8449    1.8279    7.9804 C   0  0  0  1  0  0  0  0  0  0  0  0
    1.9222   -0.0523    7.7610 C   0  0  0  1  0  0  0  0  0  0  0  0
    2.2715   -0.9329    7.3319 H   0  0  0  1  0  0  0  0  0  0  0  0
   -0.4278   -0.6025    5.7389 C   0  0  0  1  0  0  0  0  0  0  0  0
   -0.1881   -1.2928    6.5206 H   0  0  0  1  0  0  0  0  0  0  0  0
    1.5423    0.3246    4.8192 O   0  0  0  1  0  0  0  0  0  0  0  0
    1.5988    1.5322    9.1240 C   0  0  0  1  0  0  0  0  0  0  0  0
    0.0669    2.8948    7.7925 N   0  0  0  1  0  0  0  0  0  0  0  0
    2.2712    0.3313    8.9589 N   0  0  0  1  0  0  0  0  0  0  0  0
   -0.1507   -1.2018    4.3852 C   0  0  0  1  0  0  0  0  0  0  0  0
   -0.7394   -0.7298    3.6265 H   0  0  0  1  0  0  0  0  0  0  0  0
   -1.7958   -0.2081    5.8542 O   0  0  0  1  0  0  0  0  0  0  0  0
   -2.0114   -0.0658    6.7788 H   0  0  0  1  0  0  0  0  0  0  0  0
    1.3440   -0.9108    4.1872 C   0  0  0  1  0  0  0  0  0  0  0  0
    1.5830   -0.8467    3.1462 H   0  0  0  1  0  0  0  0  0  0  0  0
    1.5111    2.4612   10.1566 C   0  0  0  1  0  0  0  0  0  0  0  0
    0.0835    3.6973    8.8497 C   0  0  0  1  0  0  0  0  0  0  0  0
   -0.4992    4.5552    8.7723 H   0  0  0  1  0  0  0  0  0  0  0  0
   -0.4107   -2.6295    4.3819 O   0  0  0  1  0  0  0  0  0  0  0  0
    2.1786   -1.9718    4.8258 C   0  0  0  1  0  0  0  0  0  0  0  0
    2.0566   -2.8964    4.3013 H   0  0  0  1  0  0  0  0  0  0  0  0
    1.8866   -2.0995    5.8473 H   0  0  0  1  0  0  0  0  0  0  0  0
    0.7511    3.5511   10.0051 N   0  0  0  1  0  0  0  0  0  0  0  0
    2.1959    2.2705   11.3278 N   0  0  0  1  0  0  0  0  0  0  0  0
    2.7322    1.4603   11.4555 H   0  0  0  1  0  0  0  0  0  0  0  0
    2.1494    2.9444   12.0378 H   0  0  0  1  0  0  0  0  0  0  0  0
   -1.4975   -3.3409    3.3808 P   0  0  0  1  0  0  0  0  0  0  0  0
    3.5495   -1.5480    4.7582 O   0  0  0  1  0  0  0  0  0  0  0  0
   -1.5400   -2.7882    2.0086 O   0  0  0  1  0  0  0  0  0  0  0  0
   -2.9317   -3.3333    4.1342 O   0  5  0  1  0  0  0  0  0  0  0  0
   -0.9792   -4.8704    3.2525 O   0  5  0  1  0  0  0  0  0  0  0  0
    4.8324   -2.4335    5.2277 P   0  0  0  1  0  0  0  0  0  0  0  0
    4.6984   -3.4534    3.9045 O   0  0  0  1  0  0  0  0  0  0  0  0
    4.5120   -3.1694    6.4759 O   0  0  0  0  0  0  0  0  0  0  0  0
    6.0717   -1.6455    5.1449 O   0  0  0  1  0  0  0  0  0  0  0  0
    5.3656   -3.6294    2.4348 S   0  0  0  1  0  0  0  0  0  0  0  0
    4.2487   -3.6591    1.5170 O   0  0  0  1  0  0  0  0  0  0  0  0
    3.4556   -3.9289    1.9860 H   0  0  0  1  0  0  0  0  0  0  0  0
    6.2114   -2.4672    2.2696 O   0  0  0  1  0  0  0  0  0  0  0  0
    6.0711   -4.8781    2.5725 O   0  0  0  1  0  0  0  0  0  0  0  0
  1  2  1  0  0  0  0
  1  4  1  0  0  0  0
  1  5  1  0  0  0  0
  2  3  1  0  0  0  0
  2  7  1  0  0  0  0
  2  9  1  0  0  0  0
  4 10  2  0  0  0  0
  4 11  1  0  0  0  0
  5  6  1  0  0  0  0
  5 12  2  0  0  0  0
  7  8  1  0  0  0  0
  7 13  1  0  0  0  0
  7 15  1  0  0  0  0
  9 17  1  0  0  0  0
 10 12  1  0  0  0  0
 10 19  1  0  0  0  0
 11 20  2  0  0  0  0
 13 14  1  0  0  0  0
 13 17  1  0  0  0  0
 13 22  1  0  0  0  0
 15 16  1  0  0  0  0
 17 18  1  0  0  0  0
 17 23  1  0  0  0  0
 19 26  2  0  0  0  0
 19 27  1  0  0  0  0
 20 21  1  0  0  0  0
 20 26  1  0  0  0  0
 22 30  1  0  0  0  0
 23 24  1  0  0  0  0
 23 25  1  0  0  0  0
 23 31  1  0  0  0  0
 27 28  1  0  0  0  0
 27 29  1  0  0  0  0
 30 32  2  0  0  0  0
 30 33  1  0  0  0  0
 30 34  1  0  0  0  0
 31 35  1  0  0  0  0
 35 36  1  0  0  0  0
 35 37  1  0  0  0  0
 35 38  2  0  0  0  0
 36 39  1  0  0  0  0
 39 40  1  0  0  0  0
 39 42  2  0  0  0  0
 39 43  2  0  0  0  0
 40 41  1  0  0  0  0
M  BCL ATM N_TrTrTrPi2 C_TeTeTeTe H_S C_TrTrTrPi C_TrTrTrPi H_S C_TeTeTeTe H_S O_Te2Te2TeTe C_TrTrTrPi N_Tr2TrTrPi N_Tr2TrTrPi C_TeTeTeTe H_S O_Te2Te2TeTe H_S C_TeTeTeTe H_S C_TrTrTrPi C_TrTrTrPi H_S O_Tr2TrTrPi2 C_TeTeTeTe H_S H_S N_Tr2TrTrPi N_TrTrTrPi2 H_S H_S P_TeTeTeTePi O_Tr2TrTrPi2 O_Tr2Tr2TrPi O_Te2Te2Te2Te O_Te2Te2Te2Te P_TeTeTeTePi O_Tr2TrTrPi2 O_Te2Te2TeTe O_Tr2Tr2TrPi S_TeTeTeTePiPi O_Te2Te2TeTe H_S O_Tr2Tr2TrPi O_Tr2Tr2TrPi
M  BCL BND NonConjugatedSingleBond AromaticSingleBond AromaticSingleBond NonConjugatedSingleBond NonConjugatedSingleBondInRing NonConjugatedSingleBondInRing AromaticDoubleBond AromaticSingleBond NonConjugatedSingleBond AromaticDoubleBond NonConjugatedSingleBond NonConjugatedSingleBondInRing NonConjugatedSingleBond NonConjugatedSingleBondInRing AromaticSingleBond AromaticSingleBond AromaticDoubleBond NonConjugatedSingleBond NonConjugatedSingleBondInRing NonConjugatedSingleBond NonConjugatedSingleBond NonConjugatedSingleBond NonConjugatedSingleBond AromaticDoubleBond ConjugatedSingleBond NonConjugatedSingleBond AromaticSingleBond ConjugatedSingleBond NonConjugatedSingleBond NonConjugatedSingleBond NonConjugatedSingleBond NonConjugatedSingleBond NonConjugatedSingleBond ConjugatedDoubleBond ConjugatedSingleBond ConjugatedSingleBond ConjugatedSingleBond ConjugatedSingleBond ConjugatedSingleBond ConjugatedDoubleBond ConjugatedSingleBond ConjugatedSingleBond ConjugatedDoubleBond ConjugatedDoubleBond NonConjugatedSingleBond
M  BCL CHI   2   R   7   R  13   S  17   S  35   R
M  BCL DBI - - - - - - - -
M  END
> <ConfClashScore>
0 

> <ConfOneFourInteractionScore>
-0.981627 

> <ConfScore>
-0.290335 

> <ConfScorePBest>
0.0129355 

> <ConfTolerance>
1.08118 

$$$$
ChEBI.****
  PyMOL2.5          3D                             0

 43 45  0  0  0  0  0  0  0  0999 V2000
    1.0665    0.7801    7.1054 N   0  0  0  1  0  0  0  0  0  0  0  0
    0.4798    0.6684    5.8015 C   0  0  0  1  0  0  0  0  0  0  0  0
    0.9477    1.3657    5.1384 H   0  0  0  1  0  0  0  0  0  0  0  0
    0.8493    1.8174    7.9753 C   0  0  0  1  0  0  0  0  0  0  0  0
    1.9222   -0.0639    7.7444 C   0  0  0  1  0  0  0  0  0  0  0  0
    2.2686   -0.9431    7.3103 H   0  0  0  1  0  0  0  0  0  0  0  0
   -1.0330    0.9304    5.8720 C   0  0  0  1  0  0  0  0  0  0  0  0
   -1.2670    1.6376    6.6401 H   0  0  0  1  0  0  0  0  0  0  0  0
    0.6206   -0.6351    5.3149 O   0  0  0  1  0  0  0  0  0  0  0  0
    1.6056    1.5149    9.1155 C   0  0  0  1  0  0  0  0  0  0  0  0
    0.0728    2.8866    7.7944 N   0  0  0  1  0  0  0  0  0  0  0  0
    2.2752    0.3135    8.9431 N   0  0  0  1  0  0  0  0  0  0  0  0
   -1.5921   -0.4422    6.2022 C   0  0  0  1  0  0  0  0  0  0  0  0
   -2.5745   -0.5659    5.7965 H   0  0  0  1  0  0  0  0  0  0  0  0
   -1.5333    1.4034    4.6197 O   0  0  0  1  0  0  0  0  0  0  0  0
   -2.1315    2.1388    4.7708 H   0  0  0  1  0  0  0  0  0  0  0  0
   -0.5824   -1.3973    5.5191 C   0  0  0  1  0  0  0  0  0  0  0  0
   -0.9697   -1.7362    4.5810 H   0  0  0  1  0  0  0  0  0  0  0  0
    1.5225    2.4393   10.1526 C   0  0  0  1  0  0  0  0  0  0  0  0
    0.0939    3.6843    8.8552 C   0  0  0  1  0  0  0  0  0  0  0  0
   -0.4874    4.5437    8.7833 H   0  0  0  1  0  0  0  0  0  0  0  0
   -1.6292   -0.6591    7.6295 O   0  0  0  1  0  0  0  0  0  0  0  0
   -0.3066   -2.5724    6.3983 C   0  0  0  1  0  0  0  0  0  0  0  0
   -1.2228   -3.0692    6.6407 H   0  0  0  1  0  0  0  0  0  0  0  0
    0.1736   -2.2494    7.2984 H   0  0  0  1  0  0  0  0  0  0  0  0
    0.7642    3.5315   10.0081 N   0  0  0  1  0  0  0  0  0  0  0  0
    2.1856    2.2921   11.3360 N   0  0  0  1  0  0  0  0  0  0  0  0
    2.7249    1.4902   11.4990 H   0  0  0  1  0  0  0  0  0  0  0  0
    2.1226    2.9882   12.0229 H   0  0  0  1  0  0  0  0  0  0  0  0
   -3.0322   -1.0477    8.3846 P   0  0  0  1  0  0  0  0  0  0  0  0
    0.5655   -3.4729    5.6691 O   0  0  0  1  0  0  0  0  0  0  0  0
   -3.6396   -2.3017    7.8858 O   0  0  0  1  0  0  0  0  0  0  0  0
   -4.1292    0.1333    8.2233 O   0  5  0  1  0  0  0  0  0  0  0  0
   -2.7762   -1.2913    9.9656 O   0  5  0  1  0  0  0  0  0  0  0  0
    1.2597   -4.7114    6.4004 P   0  0  0  1  0  0  0  0  0  0  0  0
    2.2697   -5.2901    5.2855 O   0  0  0  1  0  0  0  0  0  0  0  0
    0.1301   -5.6261    6.6625 O   0  0  0  0  0  0  0  0  0  0  0  0
    2.1444   -4.2726    7.4917 O   0  0  0  1  0  0  0  0  0  0  0  0
    2.8207   -4.4808    4.0990 S   0  0  0  1  0  0  0  0  0  0  0  0
    2.4307   -3.1403    4.3651 O   0  0  0  1  0  0  0  0  0  0  0  0
    3.2100   -2.5808    4.4001 H   0  0  0  1  0  0  0  0  0  0  0  0
    4.1019   -4.7565    4.4717 O   0  0  0  1  0  0  0  0  0  0  0  0
    2.1649   -5.0740    3.0752 O   0  0  0  1  0  0  0  0  0  0  0  0
  1  2  1  0  0  0  0
  1  4  1  0  0  0  0
  1  5  1  0  0  0  0
  2  3  1  0  0  0  0
  2  7  1  0  0  0  0
  2  9  1  0  0  0  0
  4 10  2  0  0  0  0
  4 11  1  0  0  0  0
  5  6  1  0  0  0  0
  5 12  2  0  0  0  0
  7  8  1  0  0  0  0
  7 13  1  0  0  0  0
  7 15  1  0  0  0  0
  9 17  1  0  0  0  0
 10 12  1  0  0  0  0
 10 19  1  0  0  0  0
 11 20  2  0  0  0  0
 13 14  1  0  0  0  0
 13 17  1  0  0  0  0
 13 22  1  0  0  0  0
 15 16  1  0  0  0  0
 17 18  1  0  0  0  0
 17 23  1  0  0  0  0
 19 26  2  0  0  0  0
 19 27  1  0  0  0  0
 20 21  1  0  0  0  0
 20 26  1  0  0  0  0
 22 30  1  0  0  0  0
 23 24  1  0  0  0  0
 23 25  1  0  0  0  0
 23 31  1  0  0  0  0
 27 28  1  0  0  0  0
 27 29  1  0  0  0  0
 30 32  2  0  0  0  0
 30 33  1  0  0  0  0
 30 34  1  0  0  0  0
 31 35  1  0  0  0  0
 35 36  1  0  0  0  0
 35 37  1  0  0  0  0
 35 38  2  0  0  0  0
 36 39  1  0  0  0  0
 39 40  1  0  0  0  0
 39 42  2  0  0  0  0
 39 43  2  0  0  0  0
 40 41  1  0  0  0  0
M  BCL ATM N_TrTrTrPi2 C_TeTeTeTe H_S C_TrTrTrPi C_TrTrTrPi H_S C_TeTeTeTe H_S O_Te2Te2TeTe C_TrTrTrPi N_Tr2TrTrPi N_Tr2TrTrPi C_TeTeTeTe H_S O_Te2Te2TeTe H_S C_TeTeTeTe H_S C_TrTrTrPi C_TrTrTrPi H_S O_Tr2TrTrPi2 C_TeTeTeTe H_S H_S N_Tr2TrTrPi N_TrTrTrPi2 H_S H_S P_TeTeTeTePi O_Tr2TrTrPi2 O_Tr2Tr2TrPi O_Te2Te2Te2Te O_Te2Te2Te2Te P_TeTeTeTePi O_Tr2TrTrPi2 O_Te2Te2TeTe O_Tr2Tr2TrPi S_TeTeTeTePiPi O_Te2Te2TeTe H_S O_Tr2Tr2TrPi O_Tr2Tr2TrPi
M  BCL BND NonConjugatedSingleBond AromaticSingleBond AromaticSingleBond NonConjugatedSingleBond NonConjugatedSingleBondInRing NonConjugatedSingleBondInRing AromaticDoubleBond AromaticSingleBond NonConjugatedSingleBond AromaticDoubleBond NonConjugatedSingleBond NonConjugatedSingleBondInRing NonConjugatedSingleBond NonConjugatedSingleBondInRing AromaticSingleBond AromaticSingleBond AromaticDoubleBond NonConjugatedSingleBond NonConjugatedSingleBondInRing NonConjugatedSingleBond NonConjugatedSingleBond NonConjugatedSingleBond NonConjugatedSingleBond AromaticDoubleBond ConjugatedSingleBond NonConjugatedSingleBond AromaticSingleBond ConjugatedSingleBond NonConjugatedSingleBond NonConjugatedSingleBond NonConjugatedSingleBond NonConjugatedSingleBond NonConjugatedSingleBond ConjugatedDoubleBond ConjugatedSingleBond ConjugatedSingleBond ConjugatedSingleBond ConjugatedSingleBond ConjugatedSingleBond ConjugatedDoubleBond ConjugatedSingleBond ConjugatedSingleBond ConjugatedDoubleBond ConjugatedDoubleBond NonConjugatedSingleBond
M  BCL CHI   2   R   7   R  13   S  17   S  35   R
M  BCL DBI - - - - - - - -
M  END
> <ConfClashScore>
0 

> <ConfOneFourInteractionScore>
-0.966945 

> <ConfScore>
-0.287397 

> <ConfScorePBest>
0.0128325 

> <ConfTolerance>
0.887534 

$$$$
ChEBI.****
  PyMOL2.5          3D                             0

 43 45  0  0  0  0  0  0  0  0999 V2000
    1.0771    0.7947    7.0900 N   0  0  0  1  0  0  0  0  0  0  0  0
    0.4320    0.5710    5.8288 C   0  0  0  1  0  0  0  0  0  0  0  0
    0.6306    1.3944    5.1750 H   0  0  0  1  0  0  0  0  0  0  0  0
    0.8541    1.8262    7.9651 C   0  0  0  1  0  0  0  0  0  0  0  0
    1.9563   -0.0355    7.7150 C   0  0  0  1  0  0  0  0  0  0  0  0
    2.3119   -0.9077    7.2740 H   0  0  0  1  0  0  0  0  0  0  0  0
   -1.0754    0.3976    6.0246 C   0  0  0  1  0  0  0  0  0  0  0  0
   -1.3005   -0.0361    6.9765 H   0  0  0  1  0  0  0  0  0  0  0  0
    0.8915   -0.6527    5.2436 O   0  0  0  1  0  0  0  0  0  0  0  0
    1.6315    1.5347    9.0940 C   0  0  0  1  0  0  0  0  0  0  0  0
    0.0566    2.8821    7.7976 N   0  0  0  1  0  0  0  0  0  0  0  0
    2.3194    0.3455    8.9095 N   0  0  0  1  0  0  0  0  0  0  0  0
   -1.4088   -0.5533    4.8845 C   0  0  0  1  0  0  0  0  0  0  0  0
   -1.5958   -0.0072    3.9836 H   0  0  0  1  0  0  0  0  0  0  0  0
   -1.7678    1.6398    5.8909 O   0  0  0  1  0  0  0  0  0  0  0  0
   -2.3465    1.7670    6.6462 H   0  0  0  1  0  0  0  0  0  0  0  0
   -0.2241   -1.4051    4.7325 C   0  0  0  1  0  0  0  0  0  0  0  0
   -0.0688   -1.6405    3.7003 H   0  0  0  1  0  0  0  0  0  0  0  0
    1.5469    2.4554   10.1343 C   0  0  0  1  0  0  0  0  0  0  0  0
    0.0787    3.6779    8.8598 C   0  0  0  1  0  0  0  0  0  0  0  0
   -0.5184    4.5271    8.7981 H   0  0  0  1  0  0  0  0  0  0  0  0
   -2.5705   -1.3539    5.2148 O   0  0  0  1  0  0  0  0  0  0  0  0
   -0.3941   -2.6677    5.5115 C   0  0  0  1  0  0  0  0  0  0  0  0
   -1.2552   -3.1983    5.1623 H   0  0  0  1  0  0  0  0  0  0  0  0
   -0.5112   -2.4417    6.5508 H   0  0  0  1  0  0  0  0  0  0  0  0
    0.7677    3.5344   10.0029 N   0  0  0  1  0  0  0  0  0  0  0  0
    2.1712    2.2855   11.3700 N   0  0  0  1  0  0  0  0  0  0  0  0
    1.9803    2.9053   12.1047 H   0  0  0  1  0  0  0  0  0  0  0  0
    2.8008    1.5464   11.5034 H   0  0  0  1  0  0  0  0  0  0  0  0
   -3.2464   -2.3533    4.1038 P   0  0  0  1  0  0  0  0  0  0  0  0
    0.7934   -3.4701    5.3124 O   0  0  0  1  0  0  0  0  0  0  0  0
   -2.3441   -2.8674    3.0493 O   0  0  0  1  0  0  0  0  0  0  0  0
   -4.5157   -1.4815    3.6005 O   0  5  0  1  0  0  0  0  0  0  0  0
   -3.9555   -3.4632    5.0469 O   0  5  0  1  0  0  0  0  0  0  0  0
    1.0024   -4.8203    6.1085 P   0  0  0  1  0  0  0  0  0  0  0  0
    1.0057   -4.3260    7.7100 O   0  0  0  1  0  0  0  0  0  0  0  0
    2.3848   -5.3358    5.7419 O   0  0  0  0  0  0  0  0  0  0  0  0
   -0.1379   -5.7617    5.8930 O   0  0  0  1  0  0  0  0  0  0  0  0
    0.2742   -4.6652    9.0201 S   0  0  0  1  0  0  0  0  0  0  0  0
   -0.1996   -5.9922    8.8351 O   0  0  0  1  0  0  0  0  0  0  0  0
   -0.5439   -6.0882    7.9441 H   0  0  0  1  0  0  0  0  0  0  0  0
    1.4414   -4.5992    9.7199 O   0  0  0  1  0  0  0  0  0  0  0  0
   -0.6845   -3.7107    9.0169 O   0  0  0  1  0  0  0  0  0  0  0  0
  1  2  1  0  0  0  0
  1  4  1  0  0  0  0
  1  5  1  0  0  0  0
  2  3  1  0  0  0  0
  2  7  1  0  0  0  0
  2  9  1  0  0  0  0
  4 10  2  0  0  0  0
  4 11  1  0  0  0  0
  5  6  1  0  0  0  0
  5 12  2  0  0  0  0
  7  8  1  0  0  0  0
  7 13  1  0  0  0  0
  7 15  1  0  0  0  0
  9 17  1  0  0  0  0
 10 12  1  0  0  0  0
 10 19  1  0  0  0  0
 11 20  2  0  0  0  0
 13 14  1  0  0  0  0
 13 17  1  0  0  0  0
 13 22  1  0  0  0  0
 15 16  1  0  0  0  0
 17 18  1  0  0  0  0
 17 23  1  0  0  0  0
 19 26  2  0  0  0  0
 19 27  1  0  0  0  0
 20 21  1  0  0  0  0
 20 26  1  0  0  0  0
 22 30  1  0  0  0  0
 23 24  1  0  0  0  0
 23 25  1  0  0  0  0
 23 31  1  0  0  0  0
 27 28  1  0  0  0  0
 27 29  1  0  0  0  0
 30 32  2  0  0  0  0
 30 33  1  0  0  0  0
 30 34  1  0  0  0  0
 31 35  1  0  0  0  0
 35 36  1  0  0  0  0
 35 37  1  0  0  0  0
 35 38  2  0  0  0  0
 36 39  1  0  0  0  0
 39 40  1  0  0  0  0
 39 42  2  0  0  0  0
 39 43  2  0  0  0  0
 40 41  1  0  0  0  0
M  BCL ATM N_TrTrTrPi2 C_TeTeTeTe H_S C_TrTrTrPi C_TrTrTrPi H_S C_TeTeTeTe H_S O_Te2Te2TeTe C_TrTrTrPi N_Tr2TrTrPi N_Tr2TrTrPi C_TeTeTeTe H_S O_Te2Te2TeTe H_S C_TeTeTeTe H_S C_TrTrTrPi C_TrTrTrPi H_S O_Tr2TrTrPi2 C_TeTeTeTe H_S H_S N_Tr2TrTrPi N_TrTrTrPi2 H_S H_S P_TeTeTeTePi O_Tr2TrTrPi2 O_Tr2Tr2TrPi O_Te2Te2Te2Te O_Te2Te2Te2Te P_TeTeTeTePi O_Tr2TrTrPi2 O_Te2Te2TeTe O_Tr2Tr2TrPi S_TeTeTeTePiPi O_Te2Te2TeTe H_S O_Tr2Tr2TrPi O_Tr2Tr2TrPi
M  BCL BND NonConjugatedSingleBond AromaticSingleBond AromaticSingleBond NonConjugatedSingleBond NonConjugatedSingleBondInRing NonConjugatedSingleBondInRing AromaticDoubleBond AromaticSingleBond NonConjugatedSingleBond AromaticDoubleBond NonConjugatedSingleBond NonConjugatedSingleBondInRing NonConjugatedSingleBond NonConjugatedSingleBondInRing AromaticSingleBond AromaticSingleBond AromaticDoubleBond NonConjugatedSingleBond NonConjugatedSingleBondInRing NonConjugatedSingleBond NonConjugatedSingleBond NonConjugatedSingleBond NonConjugatedSingleBond AromaticDoubleBond ConjugatedSingleBond NonConjugatedSingleBond AromaticSingleBond ConjugatedSingleBond NonConjugatedSingleBond NonConjugatedSingleBond NonConjugatedSingleBond NonConjugatedSingleBond NonConjugatedSingleBond ConjugatedDoubleBond ConjugatedSingleBond ConjugatedSingleBond ConjugatedSingleBond ConjugatedSingleBond ConjugatedSingleBond ConjugatedDoubleBond ConjugatedSingleBond ConjugatedSingleBond ConjugatedDoubleBond ConjugatedDoubleBond NonConjugatedSingleBond
M  BCL CHI   2   R   7   R  13   S  17   S  35   R
M  BCL DBI - - - - - - - -
M  END
> <ConfClashScore>
0 

> <ConfOneFourInteractionScore>
-0.979765 

> <ConfScore>
-0.284782 

> <ConfScorePBest>
0.0127295 

> <ConfTolerance>
0.979406 

$$$$
ChEBI.****
  PyMOL2.5          3D                             0

 43 45  0  0  0  0  0  0  0  0999 V2000
    1.0609    0.7845    7.1086 N   0  0  0  1  0  0  0  0  0  0  0  0
    0.4843    0.6206    5.7597 C   0  0  0  1  0  0  0  0  0  0  0  0
   -0.5681    0.4451    5.8401 H   0  0  0  1  0  0  0  0  0  0  0  0
    0.8478    1.8226    7.9785 C   0  0  0  1  0  0  0  0  0  0  0  0
    1.9139   -0.0625    7.7471 C   0  0  0  1  0  0  0  0  0  0  0  0
    2.2570   -0.9429    7.3128 H   0  0  0  1  0  0  0  0  0  0  0  0
    1.1546   -0.5299    5.0388 C   0  0  0  1  0  0  0  0  0  0  0  0
    2.1344   -0.7080    5.4302 H   0  0  0  1  0  0  0  0  0  0  0  0
    0.7351    1.7937    4.9640 O   0  0  0  1  0  0  0  0  0  0  0  0
    1.6037    1.5175    9.1184 C   0  0  0  1  0  0  0  0  0  0  0  0
    0.0750    2.8946    7.7981 N   0  0  0  1  0  0  0  0  0  0  0  0
    2.2689    0.3136    8.9456 N   0  0  0  1  0  0  0  0  0  0  0  0
    1.2231   -0.0541    3.6085 C   0  0  0  1  0  0  0  0  0  0  0  0
    0.3060   -0.2464    3.0920 H   0  0  0  1  0  0  0  0  0  0  0  0
    0.3752   -1.7222    5.1438 O   0  0  0  1  0  0  0  0  0  0  0  0
    0.9570   -2.4753    5.2702 H   0  0  0  1  0  0  0  0  0  0  0  0
    1.4571    1.4289    3.7734 C   0  0  0  1  0  0  0  0  0  0  0  0
    1.0805    1.9647    2.9272 H   0  0  0  1  0  0  0  0  0  0  0  0
    1.5245    2.4422   10.1555 C   0  0  0  1  0  0  0  0  0  0  0  0
    0.0995    3.6921    8.8589 C   0  0  0  1  0  0  0  0  0  0  0  0
   -0.4788    4.5536    8.7874 H   0  0  0  1  0  0  0  0  0  0  0  0
    2.3202   -0.6830    2.8978 O   0  0  0  1  0  0  0  0  0  0  0  0
    2.8966    1.7110    3.9343 C   0  0  0  1  0  0  0  0  0  0  0  0
    3.2881    1.1053    4.7247 H   0  0  0  1  0  0  0  0  0  0  0  0
    3.0280    2.7446    4.1777 H   0  0  0  1  0  0  0  0  0  0  0  0
    0.7700    3.5370   10.0114 N   0  0  0  1  0  0  0  0  0  0  0  0
    2.1877    2.2926   11.3385 N   0  0  0  1  0  0  0  0  0  0  0  0
    2.7882    1.5294   11.4705 H   0  0  0  1  0  0  0  0  0  0  0  0
    2.0636    2.9482   12.0562 H   0  0  0  1  0  0  0  0  0  0  0  0
    2.2857   -0.9924    1.2876 P   0  0  0  1  0  0  0  0  0  0  0  0
    3.6090    1.4155    2.7099 O   0  0  0  1  0  0  0  0  0  0  0  0
    0.9896   -1.6280    0.9613 O   0  0  0  1  0  0  0  0  0  0  0  0
    3.6291   -1.7721    0.8276 O   0  5  0  1  0  0  0  0  0  0  0  0
    2.4111    0.4568    0.5745 O   0  5  0  1  0  0  0  0  0  0  0  0
    5.1277    1.8435    2.5946 P   0  0  0  1  0  0  0  0  0  0  0  0
    5.0265    3.4788    2.9476 O   0  0  0  1  0  0  0  0  0  0  0  0
    5.6760    1.5284    1.2255 O   0  0  0  0  0  0  0  0  0  0  0  0
    5.7836    1.1854    3.7361 O   0  0  0  1  0  0  0  0  0  0  0  0
    3.9933    4.6874    2.7438 S   0  0  0  1  0  0  0  0  0  0  0  0
    2.6644    4.1088    2.7587 O   0  0  0  1  0  0  0  0  0  0  0  0
    2.0124    4.8001    2.6221 H   0  0  0  1  0  0  0  0  0  0  0  0
    4.2781    5.4887    3.9084 O   0  0  0  1  0  0  0  0  0  0  0  0
    4.3117    5.3066    1.4911 O   0  0  0  1  0  0  0  0  0  0  0  0
  1  2  1  0  0  0  0
  1  4  1  0  0  0  0
  1  5  1  0  0  0  0
  2  3  1  0  0  0  0
  2  7  1  0  0  0  0
  2  9  1  0  0  0  0
  4 10  2  0  0  0  0
  4 11  1  0  0  0  0
  5  6  1  0  0  0  0
  5 12  2  0  0  0  0
  7  8  1  0  0  0  0
  7 13  1  0  0  0  0
  7 15  1  0  0  0  0
  9 17  1  0  0  0  0
 10 12  1  0  0  0  0
 10 19  1  0  0  0  0
 11 20  2  0  0  0  0
 13 14  1  0  0  0  0
 13 17  1  0  0  0  0
 13 22  1  0  0  0  0
 15 16  1  0  0  0  0
 17 18  1  0  0  0  0
 17 23  1  0  0  0  0
 19 26  2  0  0  0  0
 19 27  1  0  0  0  0
 20 21  1  0  0  0  0
 20 26  1  0  0  0  0
 22 30  1  0  0  0  0
 23 24  1  0  0  0  0
 23 25  1  0  0  0  0
 23 31  1  0  0  0  0
 27 28  1  0  0  0  0
 27 29  1  0  0  0  0
 30 32  2  0  0  0  0
 30 33  1  0  0  0  0
 30 34  1  0  0  0  0
 31 35  1  0  0  0  0
 35 36  1  0  0  0  0
 35 37  1  0  0  0  0
 35 38  2  0  0  0  0
 36 39  1  0  0  0  0
 39 40  1  0  0  0  0
 39 42  2  0  0  0  0
 39 43  2  0  0  0  0
 40 41  1  0  0  0  0
M  BCL ATM N_TrTrTrPi2 C_TeTeTeTe H_S C_TrTrTrPi C_TrTrTrPi H_S C_TeTeTeTe H_S O_Te2Te2TeTe C_TrTrTrPi N_Tr2TrTrPi N_Tr2TrTrPi C_TeTeTeTe H_S O_Te2Te2TeTe H_S C_TeTeTeTe H_S C_TrTrTrPi C_TrTrTrPi H_S O_Tr2TrTrPi2 C_TeTeTeTe H_S H_S N_Tr2TrTrPi N_TrTrTrPi2 H_S H_S P_TeTeTeTePi O_Tr2TrTrPi2 O_Tr2Tr2TrPi O_Te2Te2Te2Te O_Te2Te2Te2Te P_TeTeTeTePi O_Tr2TrTrPi2 O_Te2Te2TeTe O_Tr2Tr2TrPi S_TeTeTeTePiPi O_Te2Te2TeTe H_S O_Tr2Tr2TrPi O_Tr2Tr2TrPi
M  BCL BND NonConjugatedSingleBond AromaticSingleBond AromaticSingleBond NonConjugatedSingleBond NonConjugatedSingleBondInRing NonConjugatedSingleBondInRing AromaticDoubleBond AromaticSingleBond NonConjugatedSingleBond AromaticDoubleBond NonConjugatedSingleBond NonConjugatedSingleBondInRing NonConjugatedSingleBond NonConjugatedSingleBondInRing AromaticSingleBond AromaticSingleBond AromaticDoubleBond NonConjugatedSingleBond NonConjugatedSingleBondInRing NonConjugatedSingleBond NonConjugatedSingleBond NonConjugatedSingleBond NonConjugatedSingleBond AromaticDoubleBond ConjugatedSingleBond NonConjugatedSingleBond AromaticSingleBond ConjugatedSingleBond NonConjugatedSingleBond NonConjugatedSingleBond NonConjugatedSingleBond NonConjugatedSingleBond NonConjugatedSingleBond ConjugatedDoubleBond ConjugatedSingleBond ConjugatedSingleBond ConjugatedSingleBond ConjugatedSingleBond ConjugatedSingleBond ConjugatedDoubleBond ConjugatedSingleBond ConjugatedSingleBond ConjugatedDoubleBond ConjugatedDoubleBond NonConjugatedSingleBond
M  BCL CHI   2   R   7   R  13   S  17   S  35   R
M  BCL DBI - - - - - - - -
M  END
> <ConfClashScore>
0 

> <ConfOneFourInteractionScore>
-0.979714 

> <ConfScore>
-0.28439 

> <ConfScorePBest>
0.0126265 

> <ConfTolerance>
1.00728 

$$$$
ChEBI.****
  PyMOL2.5          3D                             0

 43 45  0  0  0  0  0  0  0  0999 V2000
    1.0700    0.7871    7.1050 N   0  0  0  1  0  0  0  0  0  0  0  0
    0.4946    0.6211    5.7559 C   0  0  0  1  0  0  0  0  0  0  0  0
    0.7895    1.4434    5.1381 H   0  0  0  1  0  0  0  0  0  0  0  0
    0.8473    1.8209    7.9776 C   0  0  0  1  0  0  0  0  0  0  0  0
    1.9312   -0.0534    7.7411 C   0  0  0  1  0  0  0  0  0  0  0  0
    2.2824   -0.9295    7.3045 H   0  0  0  1  0  0  0  0  0  0  0  0
   -1.0426    0.5552    5.8445 C   0  0  0  1  0  0  0  0  0  0  0  0
   -1.4062    1.1008    6.6901 H   0  0  0  1  0  0  0  0  0  0  0  0
    0.9346   -0.5753    5.1959 O   0  0  0  1  0  0  0  0  0  0  0  0
    1.6065    1.5201    9.1165 C   0  0  0  1  0  0  0  0  0  0  0  0
    0.0644    2.8860    7.8001 N   0  0  0  1  0  0  0  0  0  0  0  0
    2.2830    0.3231    8.9404 N   0  0  0  1  0  0  0  0  0  0  0  0
   -1.2925   -0.9500    6.0044 C   0  0  0  1  0  0  0  0  0  0  0  0
   -2.2216   -1.2345    5.5563 H   0  0  0  1  0  0  0  0  0  0  0  0
   -1.6521    1.0579    4.6546 O   0  0  0  1  0  0  0  0  0  0  0  0
   -2.0156    0.3281    4.1478 H   0  0  0  1  0  0  0  0  0  0  0  0
   -0.1080   -1.5812    5.2625 C   0  0  0  1  0  0  0  0  0  0  0  0
   -0.4040   -1.8695    4.2755 H   0  0  0  1  0  0  0  0  0  0  0  0
    1.5188    2.4414   10.1559 C   0  0  0  1  0  0  0  0  0  0  0  0
    0.0817    3.6811    8.8628 C   0  0  0  1  0  0  0  0  0  0  0  0
   -0.5047    4.5372    8.7937 H   0  0  0  1  0  0  0  0  0  0  0  0
   -1.2929   -1.3310    7.4015 O   0  0  0  1  0  0  0  0  0  0  0  0
    0.3828   -2.7799    6.0058 C   0  0  0  1  0  0  0  0  0  0  0  0
   -0.3665   -3.5437    6.0008 H   0  0  0  1  0  0  0  0  0  0  0  0
    0.6140   -2.5129    7.0158 H   0  0  0  1  0  0  0  0  0  0  0  0
    0.7539    3.5294   10.0148 N   0  0  0  1  0  0  0  0  0  0  0  0
    2.1865    2.2945   11.3432 N   0  0  0  1  0  0  0  0  0  0  0  0
    2.1459    3.0030   12.0191 H   0  0  0  1  0  0  0  0  0  0  0  0
    2.7047    1.4810   11.5165 H   0  0  0  1  0  0  0  0  0  0  0  0
   -1.9669   -2.7649    7.8247 P   0  0  0  1  0  0  0  0  0  0  0  0
    1.5746   -3.2544    5.3363 O   0  0  0  1  0  0  0  0  0  0  0  0
   -2.9741   -3.2328    6.8464 O   0  0  0  1  0  0  0  0  0  0  0  0
   -2.8463   -2.5042    9.1600 O   0  5  0  1  0  0  0  0  0  0  0  0
   -0.8270   -3.8636    8.1681 O   0  5  0  1  0  0  0  0  0  0  0  0
    2.7263   -4.1324    6.0830 P   0  0  0  1  0  0  0  0  0  0  0  0
    3.7774   -4.3115    4.7899 O   0  0  0  1  0  0  0  0  0  0  0  0
    2.1519   -5.4413    6.4874 O   0  0  0  0  0  0  0  0  0  0  0  0
    3.4003   -3.2766    7.0769 O   0  0  0  1  0  0  0  0  0  0  0  0
    3.8101   -5.0677    3.3111 S   0  0  0  1  0  0  0  0  0  0  0  0
    3.4741   -6.4338    3.8032 O   0  0  0  1  0  0  0  0  0  0  0  0
    2.5206   -6.5448    3.8146 H   0  0  0  1  0  0  0  0  0  0  0  0
    2.9088   -4.4594    2.5200 O   0  0  0  1  0  0  0  0  0  0  0  0
    5.2060   -5.1012    3.0306 O   0  0  0  1  0  0  0  0  0  0  0  0
  1  2  1  0  0  0  0
  1  4  1  0  0  0  0
  1  5  1  0  0  0  0
  2  3  1  0  0  0  0
  2  7  1  0  0  0  0
  2  9  1  0  0  0  0
  4 10  2  0  0  0  0
  4 11  1  0  0  0  0
  5  6  1  0  0  0  0
  5 12  2  0  0  0  0
  7  8  1  0  0  0  0
  7 13  1  0  0  0  0
  7 15  1  0  0  0  0
  9 17  1  0  0  0  0
 10 12  1  0  0  0  0
 10 19  1  0  0  0  0
 11 20  2  0  0  0  0
 13 14  1  0  0  0  0
 13 17  1  0  0  0  0
 13 22  1  0  0  0  0
 15 16  1  0  0  0  0
 17 18  1  0  0  0  0
 17 23  1  0  0  0  0
 19 26  2  0  0  0  0
 19 27  1  0  0  0  0
 20 21  1  0  0  0  0
 20 26  1  0  0  0  0
 22 30  1  0  0  0  0
 23 24  1  0  0  0  0
 23 25  1  0  0  0  0
 23 31  1  0  0  0  0
 27 28  1  0  0  0  0
 27 29  1  0  0  0  0
 30 32  2  0  0  0  0
 30 33  1  0  0  0  0
 30 34  1  0  0  0  0
 31 35  1  0  0  0  0
 35 36  1  0  0  0  0
 35 37  1  0  0  0  0
 35 38  2  0  0  0  0
 36 39  1  0  0  0  0
 39 40  1  0  0  0  0
 39 42  2  0  0  0  0
 39 43  2  0  0  0  0
 40 41  1  0  0  0  0
M  BCL ATM N_TrTrTrPi2 C_TeTeTeTe H_S C_TrTrTrPi C_TrTrTrPi H_S C_TeTeTeTe H_S O_Te2Te2TeTe C_TrTrTrPi N_Tr2TrTrPi N_Tr2TrTrPi C_TeTeTeTe H_S O_Te2Te2TeTe H_S C_TeTeTeTe H_S C_TrTrTrPi C_TrTrTrPi H_S O_Tr2TrTrPi2 C_TeTeTeTe H_S H_S N_Tr2TrTrPi N_TrTrTrPi2 H_S H_S P_TeTeTeTePi O_Tr2TrTrPi2 O_Tr2Tr2TrPi O_Te2Te2Te2Te O_Te2Te2Te2Te P_TeTeTeTePi O_Tr2TrTrPi2 O_Te2Te2TeTe O_Tr2Tr2TrPi S_TeTeTeTePiPi O_Te2Te2TeTe H_S O_Tr2Tr2TrPi O_Tr2Tr2TrPi
M  BCL BND NonConjugatedSingleBond AromaticSingleBond AromaticSingleBond NonConjugatedSingleBond NonConjugatedSingleBondInRing NonConjugatedSingleBondInRing AromaticDoubleBond AromaticSingleBond NonConjugatedSingleBond AromaticDoubleBond NonConjugatedSingleBond NonConjugatedSingleBondInRing NonConjugatedSingleBond NonConjugatedSingleBondInRing AromaticSingleBond AromaticSingleBond AromaticDoubleBond NonConjugatedSingleBond NonConjugatedSingleBondInRing NonConjugatedSingleBond NonConjugatedSingleBond NonConjugatedSingleBond NonConjugatedSingleBond AromaticDoubleBond ConjugatedSingleBond NonConjugatedSingleBond AromaticSingleBond ConjugatedSingleBond NonConjugatedSingleBond NonConjugatedSingleBond NonConjugatedSingleBond NonConjugatedSingleBond NonConjugatedSingleBond ConjugatedDoubleBond ConjugatedSingleBond ConjugatedSingleBond ConjugatedSingleBond ConjugatedSingleBond ConjugatedSingleBond ConjugatedDoubleBond ConjugatedSingleBond ConjugatedSingleBond ConjugatedDoubleBond ConjugatedDoubleBond NonConjugatedSingleBond
M  BCL CHI   2   R   7   R  13   S  17   S  35   R
M  BCL DBI - - - - - - - -
M  END
> <ConfClashScore>
0 

> <ConfOneFourInteractionScore>
-0.981777 

> <ConfScore>
-0.284147 

> <ConfScorePBest>
0.0125235 

> <ConfTolerance>
0.953338 

$$$$
ChEBI.****
  PyMOL2.5          3D                             0

 43 45  0  0  0  0  0  0  0  0999 V2000
    1.0737    0.7944    7.0995 N   0  0  0  1  0  0  0  0  0  0  0  0
    0.4347    0.5820    5.7993 C   0  0  0  1  0  0  0  0  0  0  0  0
   -0.6156    0.7686    5.8827 H   0  0  0  1  0  0  0  0  0  0  0  0
    0.8574    1.8301    7.9715 C   0  0  0  1  0  0  0  0  0  0  0  0
    1.9219   -0.0559    7.7401 C   0  0  0  1  0  0  0  0  0  0  0  0
    2.2660   -0.9356    7.3049 H   0  0  0  1  0  0  0  0  0  0  0  0
    0.6952   -0.8436    5.2916 C   0  0  0  1  0  0  0  0  0  0  0  0
    1.6650   -1.1867    5.5861 H   0  0  0  1  0  0  0  0  0  0  0  0
    1.0096    1.4071    4.8227 O   0  0  0  1  0  0  0  0  0  0  0  0
    1.6064    1.5202    9.1145 C   0  0  0  1  0  0  0  0  0  0  0  0
    0.0873    2.9038    7.7901 N   0  0  0  1  0  0  0  0  0  0  0  0
    2.2707    0.3159    8.9417 N   0  0  0  1  0  0  0  0  0  0  0  0
    0.6066   -0.6837    3.7966 C   0  0  0  1  0  0  0  0  0  0  0  0
   -0.4081   -0.7485    3.4632 H   0  0  0  1  0  0  0  0  0  0  0  0
   -0.2977   -1.7509    5.7723 O   0  0  0  1  0  0  0  0  0  0  0  0
    0.0492   -2.6458    5.7520 H   0  0  0  1  0  0  0  0  0  0  0  0
    1.1734    0.7196    3.5619 C   0  0  0  1  0  0  0  0  0  0  0  0
    0.6296    1.2197    2.7879 H   0  0  0  1  0  0  0  0  0  0  0  0
    1.5228    2.4418   10.1541 C   0  0  0  1  0  0  0  0  0  0  0  0
    0.1071    3.6980    8.8534 C   0  0  0  1  0  0  0  0  0  0  0  0
   -0.4695    4.5606    8.7814 H   0  0  0  1  0  0  0  0  0  0  0  0
    1.4046   -1.6877    3.1176 O   0  0  0  1  0  0  0  0  0  0  0  0
    2.6276    0.6455    3.1861 C   0  0  0  1  0  0  0  0  0  0  0  0
    2.9954    1.6156    2.9243 H   0  0  0  1  0  0  0  0  0  0  0  0
    2.7667   -0.0234    2.3626 H   0  0  0  1  0  0  0  0  0  0  0  0
    0.7708    3.5382   10.0093 N   0  0  0  1  0  0  0  0  0  0  0  0
    2.1818    2.2868   11.3451 N   0  0  0  1  0  0  0  0  0  0  0  0
    2.8138    1.5471   11.4628 H   0  0  0  1  0  0  0  0  0  0  0  0
    2.0213    2.9157   12.0794 H   0  0  0  1  0  0  0  0  0  0  0  0
    0.9796   -2.2355    1.6313 P   0  0  0  1  0  0  0  0  0  0  0  0
    3.3106    0.1465    4.3641 O   0  0  0  1  0  0  0  0  0  0  0  0
    0.3044   -1.2242    0.7877 O   0  0  0  1  0  0  0  0  0  0  0  0
    0.0776   -3.5586    1.8766 O   0  5  0  1  0  0  0  0  0  0  0  0
    2.3790   -2.7570    1.0035 O   0  5  0  1  0  0  0  0  0  0  0  0
    4.9053    0.0741    4.4169 P   0  0  0  1  0  0  0  0  0  0  0  0
    5.2106   -0.9004    3.0880 O   0  0  0  1  0  0  0  0  0  0  0  0
    5.3536   -0.5631    5.6976 O   0  0  0  0  0  0  0  0  0  0  0  0
    5.4876    1.4213    4.1183 O   0  0  0  1  0  0  0  0  0  0  0  0
    6.3767   -1.8576    2.5460 S   0  0  0  1  0  0  0  0  0  0  0  0
    6.1256   -3.1752    3.0954 O   0  0  0  1  0  0  0  0  0  0  0  0
    5.2791   -3.4986    2.7783 H   0  0  0  1  0  0  0  0  0  0  0  0
    6.1523   -1.7820    1.1235 O   0  0  0  1  0  0  0  0  0  0  0  0
    7.6196   -1.3011    2.9926 O   0  0  0  1  0  0  0  0  0  0  0  0
  1  2  1  0  0  0  0
  1  4  1  0  0  0  0
  1  5  1  0  0  0  0
  2  3  1  0  0  0  0
  2  7  1  0  0  0  0
  2  9  1  0  0  0  0
  4 10  2  0  0  0  0
  4 11  1  0  0  0  0
  5  6  1  0  0  0  0
  5 12  2  0  0  0  0
  7  8  1  0  0  0  0
  7 13  1  0  0  0  0
  7 15  1  0  0  0  0
  9 17  1  0  0  0  0
 10 12  1  0  0  0  0
 10 19  1  0  0  0  0
 11 20  2  0  0  0  0
 13 14  1  0  0  0  0
 13 17  1  0  0  0  0
 13 22  1  0  0  0  0
 15 16  1  0  0  0  0
 17 18  1  0  0  0  0
 17 23  1  0  0  0  0
 19 26  2  0  0  0  0
 19 27  1  0  0  0  0
 20 21  1  0  0  0  0
 20 26  1  0  0  0  0
 22 30  1  0  0  0  0
 23 24  1  0  0  0  0
 23 25  1  0  0  0  0
 23 31  1  0  0  0  0
 27 28  1  0  0  0  0
 27 29  1  0  0  0  0
 30 32  2  0  0  0  0
 30 33  1  0  0  0  0
 30 34  1  0  0  0  0
 31 35  1  0  0  0  0
 35 36  1  0  0  0  0
 35 37  1  0  0  0  0
 35 38  2  0  0  0  0
 36 39  1  0  0  0  0
 39 40  1  0  0  0  0
 39 42  2  0  0  0  0
 39 43  2  0  0  0  0
 40 41  1  0  0  0  0
M  BCL ATM N_TrTrTrPi2 C_TeTeTeTe H_S C_TrTrTrPi C_TrTrTrPi H_S C_TeTeTeTe H_S O_Te2Te2TeTe C_TrTrTrPi N_Tr2TrTrPi N_Tr2TrTrPi C_TeTeTeTe H_S O_Te2Te2TeTe H_S C_TeTeTeTe H_S C_TrTrTrPi C_TrTrTrPi H_S O_Tr2TrTrPi2 C_TeTeTeTe H_S H_S N_Tr2TrTrPi N_TrTrTrPi2 H_S H_S P_TeTeTeTePi O_Tr2TrTrPi2 O_Tr2Tr2TrPi O_Te2Te2Te2Te O_Te2Te2Te2Te P_TeTeTeTePi O_Tr2TrTrPi2 O_Te2Te2TeTe O_Tr2Tr2TrPi S_TeTeTeTePiPi O_Te2Te2TeTe H_S O_Tr2Tr2TrPi O_Tr2Tr2TrPi
M  BCL BND NonConjugatedSingleBond AromaticSingleBond AromaticSingleBond NonConjugatedSingleBond NonConjugatedSingleBondInRing NonConjugatedSingleBondInRing AromaticDoubleBond AromaticSingleBond NonConjugatedSingleBond AromaticDoubleBond NonConjugatedSingleBond NonConjugatedSingleBondInRing NonConjugatedSingleBond NonConjugatedSingleBondInRing AromaticSingleBond AromaticSingleBond AromaticDoubleBond NonConjugatedSingleBond NonConjugatedSingleBondInRing NonConjugatedSingleBond NonConjugatedSingleBond NonConjugatedSingleBond NonConjugatedSingleBond AromaticDoubleBond ConjugatedSingleBond NonConjugatedSingleBond AromaticSingleBond ConjugatedSingleBond NonConjugatedSingleBond NonConjugatedSingleBond NonConjugatedSingleBond NonConjugatedSingleBond NonConjugatedSingleBond ConjugatedDoubleBond ConjugatedSingleBond ConjugatedSingleBond ConjugatedSingleBond ConjugatedSingleBond ConjugatedSingleBond ConjugatedDoubleBond ConjugatedSingleBond ConjugatedSingleBond ConjugatedDoubleBond ConjugatedDoubleBond NonConjugatedSingleBond
M  BCL CHI   2   R   7   R  13   S  17   S  35   R
M  BCL DBI - - - - - - - -
M  END
> <ConfClashScore>
0 

> <ConfOneFourInteractionScore>
-0.987537 

> <ConfScore>
-0.284141 

> <ConfScorePBest>
0.0124205 

> <ConfTolerance>
1.01959 

$$$$
ChEBI.****
  PyMOL2.5          3D                             0

 43 45  0  0  0  0  0  0  0  0999 V2000
    1.0588    0.7934    7.1037 N   0  0  0  1  0  0  0  0  0  0  0  0
    0.5195    0.5880    5.7761 C   0  0  0  1  0  0  0  0  0  0  0  0
   -0.3364    1.2149    5.6373 H   0  0  0  1  0  0  0  0  0  0  0  0
    0.8439    1.8277    7.9777 C   0  0  0  1  0  0  0  0  0  0  0  0
    1.9153   -0.0533    7.7379 C   0  0  0  1  0  0  0  0  0  0  0  0
    2.2604   -0.9312    7.3000 H   0  0  0  1  0  0  0  0  0  0  0  0
    0.1422   -0.8810    5.5756 C   0  0  0  1  0  0  0  0  0  0  0  0
    0.7706   -1.5298    6.1493 H   0  0  0  1  0  0  0  0  0  0  0  0
    1.5128    0.8733    4.7846 O   0  0  0  1  0  0  0  0  0  0  0  0
    1.6024    1.5208    9.1153 C   0  0  0  1  0  0  0  0  0  0  0  0
    0.0676    2.8980    7.8022 N   0  0  0  1  0  0  0  0  0  0  0  0
    2.2709    0.3196    8.9372 N   0  0  0  1  0  0  0  0  0  0  0  0
    0.3873   -1.0425    4.0826 C   0  0  0  1  0  0  0  0  0  0  0  0
   -0.4795   -0.7514    3.5269 H   0  0  0  1  0  0  0  0  0  0  0  0
   -1.2254   -1.1219    5.9117 O   0  0  0  1  0  0  0  0  0  0  0  0
   -1.7071   -0.2914    5.9092 H   0  0  0  1  0  0  0  0  0  0  0  0
    1.5150   -0.1552    3.7776 C   0  0  0  1  0  0  0  0  0  0  0  0
    1.3917    0.2782    2.8071 H   0  0  0  1  0  0  0  0  0  0  0  0
    1.5219    2.4416   10.1558 C   0  0  0  1  0  0  0  0  0  0  0  0
    0.0913    3.6919    8.8657 C   0  0  0  1  0  0  0  0  0  0  0  0
   -0.4896    4.5518    8.7981 H   0  0  0  1  0  0  0  0  0  0  0  0
    0.7241   -2.4187    3.7688 O   0  0  0  1  0  0  0  0  0  0  0  0
    2.7827   -0.9092    3.8229 C   0  0  0  1  0  0  0  0  0  0  0  0
    2.7575   -1.6853    3.0867 H   0  0  0  1  0  0  0  0  0  0  0  0
    2.9006   -1.3421    4.7943 H   0  0  0  1  0  0  0  0  0  0  0  0
    0.7639    3.5346   10.0168 N   0  0  0  1  0  0  0  0  0  0  0  0
    2.1873    2.2897   11.3373 N   0  0  0  1  0  0  0  0  0  0  0  0
    2.7035    1.4743   11.5077 H   0  0  0  1  0  0  0  0  0  0  0  0
    2.1490    2.9961   12.0155 H   0  0  0  1  0  0  0  0  0  0  0  0
    0.2182   -3.6481    4.7292 P   0  0  0  1  0  0  0  0  0  0  0  0
    3.9018   -0.0325    3.5530 O   0  0  0  1  0  0  0  0  0  0  0  0
   -1.1297   -3.3229    5.2468 O   0  0  0  1  0  0  0  0  0  0  0  0
    1.2712   -3.6000    5.9594 O   0  5  0  1  0  0  0  0  0  0  0  0
    0.3689   -5.0832    3.9931 O   0  5  0  1  0  0  0  0  0  0  0  0
    5.3262   -0.6184    3.2309 P   0  0  0  1  0  0  0  0  0  0  0  0
    6.2196    0.7700    2.9426 O   0  0  0  1  0  0  0  0  0  0  0  0
    5.2678   -1.4047    1.9490 O   0  0  0  0  0  0  0  0  0  0  0  0
    5.7672   -1.3316    4.4592 O   0  0  0  1  0  0  0  0  0  0  0  0
    6.7397    2.0883    3.7698 S   0  0  0  1  0  0  0  0  0  0  0  0
    5.8866    1.9505    4.9335 O   0  0  0  1  0  0  0  0  0  0  0  0
    5.6518    1.0271    5.0512 H   0  0  0  1  0  0  0  0  0  0  0  0
    8.1456    1.9139    4.0395 O   0  0  0  1  0  0  0  0  0  0  0  0
    6.4160    3.2213    2.9686 O   0  0  0  1  0  0  0  0  0  0  0  0
  1  2  1  0  0  0  0
  1  4  1  0  0  0  0
  1  5  1  0  0  0  0
  2  3  1  0  0  0  0
  2  7  1  0  0  0  0
  2  9  1  0  0  0  0
  4 10  2  0  0  0  0
  4 11  1  0  0  0  0
  5  6  1  0  0  0  0
  5 12  2  0  0  0  0
  7  8  1  0  0  0  0
  7 13  1  0  0  0  0
  7 15  1  0  0  0  0
  9 17  1  0  0  0  0
 10 12  1  0  0  0  0
 10 19  1  0  0  0  0
 11 20  2  0  0  0  0
 13 14  1  0  0  0  0
 13 17  1  0  0  0  0
 13 22  1  0  0  0  0
 15 16  1  0  0  0  0
 17 18  1  0  0  0  0
 17 23  1  0  0  0  0
 19 26  2  0  0  0  0
 19 27  1  0  0  0  0
 20 21  1  0  0  0  0
 20 26  1  0  0  0  0
 22 30  1  0  0  0  0
 23 24  1  0  0  0  0
 23 25  1  0  0  0  0
 23 31  1  0  0  0  0
 27 28  1  0  0  0  0
 27 29  1  0  0  0  0
 30 32  2  0  0  0  0
 30 33  1  0  0  0  0
 30 34  1  0  0  0  0
 31 35  1  0  0  0  0
 35 36  1  0  0  0  0
 35 37  1  0  0  0  0
 35 38  2  0  0  0  0
 36 39  1  0  0  0  0
 39 40  1  0  0  0  0
 39 42  2  0  0  0  0
 39 43  2  0  0  0  0
 40 41  1  0  0  0  0
M  BCL ATM N_TrTrTrPi2 C_TeTeTeTe H_S C_TrTrTrPi C_TrTrTrPi H_S C_TeTeTeTe H_S O_Te2Te2TeTe C_TrTrTrPi N_Tr2TrTrPi N_Tr2TrTrPi C_TeTeTeTe H_S O_Te2Te2TeTe H_S C_TeTeTeTe H_S C_TrTrTrPi C_TrTrTrPi H_S O_Tr2TrTrPi2 C_TeTeTeTe H_S H_S N_Tr2TrTrPi N_TrTrTrPi2 H_S H_S P_TeTeTeTePi O_Tr2TrTrPi2 O_Tr2Tr2TrPi O_Te2Te2Te2Te O_Te2Te2Te2Te P_TeTeTeTePi O_Tr2TrTrPi2 O_Te2Te2TeTe O_Tr2Tr2TrPi S_TeTeTeTePiPi O_Te2Te2TeTe H_S O_Tr2Tr2TrPi O_Tr2Tr2TrPi
M  BCL BND NonConjugatedSingleBond AromaticSingleBond AromaticSingleBond NonConjugatedSingleBond NonConjugatedSingleBondInRing NonConjugatedSingleBondInRing AromaticDoubleBond AromaticSingleBond NonConjugatedSingleBond AromaticDoubleBond NonConjugatedSingleBond NonConjugatedSingleBondInRing NonConjugatedSingleBond NonConjugatedSingleBondInRing AromaticSingleBond AromaticSingleBond AromaticDoubleBond NonConjugatedSingleBond NonConjugatedSingleBondInRing NonConjugatedSingleBond NonConjugatedSingleBond NonConjugatedSingleBond NonConjugatedSingleBond AromaticDoubleBond ConjugatedSingleBond NonConjugatedSingleBond AromaticSingleBond ConjugatedSingleBond NonConjugatedSingleBond NonConjugatedSingleBond NonConjugatedSingleBond NonConjugatedSingleBond NonConjugatedSingleBond ConjugatedDoubleBond ConjugatedSingleBond ConjugatedSingleBond ConjugatedSingleBond ConjugatedSingleBond ConjugatedSingleBond ConjugatedDoubleBond ConjugatedSingleBond ConjugatedSingleBond ConjugatedDoubleBond ConjugatedDoubleBond NonConjugatedSingleBond
M  BCL CHI   2   R   7   R  13   S  17   S  35   R
M  BCL DBI - - - - - - - -
M  END
> <ConfClashScore>
0 

> <ConfOneFourInteractionScore>
-0.96233 

> <ConfScore>
-0.278011 

> <ConfScorePBest>
0.0123175 

> <ConfTolerance>
1.10481 

$$$$
ChEBI.****
  PyMOL2.5          3D                             0

 43 45  0  0  0  0  0  0  0  0999 V2000
    1.0638    0.7820    7.0944 N   0  0  0  1  0  0  0  0  0  0  0  0
    0.4778    0.6220    5.7329 C   0  0  0  1  0  0  0  0  0  0  0  0
   -0.2467    1.3909    5.5632 H   0  0  0  1  0  0  0  0  0  0  0  0
    0.8487    1.8137    7.9713 C   0  0  0  1  0  0  0  0  0  0  0  0
    1.9230   -0.0648    7.7249 C   0  0  0  1  0  0  0  0  0  0  0  0
    2.2688   -0.9409    7.2841 H   0  0  0  1  0  0  0  0  0  0  0  0
   -0.1615   -0.7616    5.5820 C   0  0  0  1  0  0  0  0  0  0  0  0
    0.2591   -1.4567    6.2783 H   0  0  0  1  0  0  0  0  0  0  0  0
    1.5135    0.6696    4.7258 O   0  0  0  1  0  0  0  0  0  0  0  0
    1.6099    1.5053    9.1068 C   0  0  0  1  0  0  0  0  0  0  0  0
    0.0703    2.8831    7.8000 N   0  0  0  1  0  0  0  0  0  0  0  0
    2.2802    0.3057    8.9245 N   0  0  0  1  0  0  0  0  0  0  0  0
    0.1784   -1.1436    4.1653 C   0  0  0  1  0  0  0  0  0  0  0  0
   -0.5334   -0.7402    3.4756 H   0  0  0  1  0  0  0  0  0  0  0  0
   -1.5759   -0.6957    5.7695 O   0  0  0  1  0  0  0  0  0  0  0  0
   -1.9943   -0.4100    4.9541 H   0  0  0  1  0  0  0  0  0  0  0  0
    1.5623   -0.5083    3.9674 C   0  0  0  1  0  0  0  0  0  0  0  0
    1.7338   -0.2874    2.9347 H   0  0  0  1  0  0  0  0  0  0  0  0
    1.5297    2.4233   10.1498 C   0  0  0  1  0  0  0  0  0  0  0  0
    0.0946    3.6743    8.8655 C   0  0  0  1  0  0  0  0  0  0  0  0
   -0.4880    4.5334    8.8011 H   0  0  0  1  0  0  0  0  0  0  0  0
    0.2379   -2.5868    4.0120 O   0  0  0  1  0  0  0  0  0  0  0  0
    2.6374   -1.4158    4.4682 C   0  0  0  1  0  0  0  0  0  0  0  0
    2.5384   -2.3813    4.0178 H   0  0  0  1  0  0  0  0  0  0  0  0
    2.5692   -1.5092    5.5320 H   0  0  0  1  0  0  0  0  0  0  0  0
    0.7695    3.5154   10.0149 N   0  0  0  1  0  0  0  0  0  0  0  0
    2.1853    2.3209   11.3719 N   0  0  0  1  0  0  0  0  0  0  0  0
    2.1771    3.0755   11.9971 H   0  0  0  1  0  0  0  0  0  0  0  0
    2.6555    1.4941   11.6080 H   0  0  0  1  0  0  0  0  0  0  0  0
   -0.1240   -3.6330    5.2220 P   0  0  0  1  0  0  0  0  0  0  0  0
    3.9103   -0.8309    4.1056 O   0  0  0  1  0  0  0  0  0  0  0  0
    0.5356   -3.4232    6.5302 O   0  0  0  1  0  0  0  0  0  0  0  0
    0.0893   -5.1651    4.7406 O   0  5  0  1  0  0  0  0  0  0  0  0
   -1.7241   -3.4082    5.3374 O   0  5  0  1  0  0  0  0  0  0  0  0
    5.2550   -1.5212    4.6446 P   0  0  0  1  0  0  0  0  0  0  0  0
    5.1164   -1.2799    6.2421 O   0  0  0  1  0  0  0  0  0  0  0  0
    6.4197   -0.7885    4.0906 O   0  0  0  0  0  0  0  0  0  0  0  0
    5.1674   -2.9660    4.4288 O   0  0  0  1  0  0  0  0  0  0  0  0
    6.2911   -1.5373    7.3130 S   0  0  0  1  0  0  0  0  0  0  0  0
    5.5807   -2.3409    8.2883 O   0  0  0  1  0  0  0  0  0  0  0  0
    4.8079   -1.8619    8.5964 H   0  0  0  1  0  0  0  0  0  0  0  0
    7.3369   -2.2528    6.6199 O   0  0  0  1  0  0  0  0  0  0  0  0
    6.7233   -0.2503    7.7824 O   0  0  0  1  0  0  0  0  0  0  0  0
  1  2  1  0  0  0  0
  1  4  1  0  0  0  0
  1  5  1  0  0  0  0
  2  3  1  0  0  0  0
  2  7  1  0  0  0  0
  2  9  1  0  0  0  0
  4 10  2  0  0  0  0
  4 11  1  0  0  0  0
  5  6  1  0  0  0  0
  5 12  2  0  0  0  0
  7  8  1  0  0  0  0
  7 13  1  0  0  0  0
  7 15  1  0  0  0  0
  9 17  1  0  0  0  0
 10 12  1  0  0  0  0
 10 19  1  0  0  0  0
 11 20  2  0  0  0  0
 13 14  1  0  0  0  0
 13 17  1  0  0  0  0
 13 22  1  0  0  0  0
 15 16  1  0  0  0  0
 17 18  1  0  0  0  0
 17 23  1  0  0  0  0
 19 26  2  0  0  0  0
 19 27  1  0  0  0  0
 20 21  1  0  0  0  0
 20 26  1  0  0  0  0
 22 30  1  0  0  0  0
 23 24  1  0  0  0  0
 23 25  1  0  0  0  0
 23 31  1  0  0  0  0
 27 28  1  0  0  0  0
 27 29  1  0  0  0  0
 30 32  2  0  0  0  0
 30 33  1  0  0  0  0
 30 34  1  0  0  0  0
 31 35  1  0  0  0  0
 35 36  1  0  0  0  0
 35 37  1  0  0  0  0
 35 38  2  0  0  0  0
 36 39  1  0  0  0  0
 39 40  1  0  0  0  0
 39 42  2  0  0  0  0
 39 43  2  0  0  0  0
 40 41  1  0  0  0  0
M  BCL ATM N_TrTrTrPi2 C_TeTeTeTe H_S C_TrTrTrPi C_TrTrTrPi H_S C_TeTeTeTe H_S O_Te2Te2TeTe C_TrTrTrPi N_Tr2TrTrPi N_Tr2TrTrPi C_TeTeTeTe H_S O_Te2Te2TeTe H_S C_TeTeTeTe H_S C_TrTrTrPi C_TrTrTrPi H_S O_Tr2TrTrPi2 C_TeTeTeTe H_S H_S N_Tr2TrTrPi N_TrTrTrPi2 H_S H_S P_TeTeTeTePi O_Tr2TrTrPi2 O_Tr2Tr2TrPi O_Te2Te2Te2Te O_Te2Te2Te2Te P_TeTeTeTePi O_Tr2TrTrPi2 O_Te2Te2TeTe O_Tr2Tr2TrPi S_TeTeTeTePiPi O_Te2Te2TeTe H_S O_Tr2Tr2TrPi O_Tr2Tr2TrPi
M  BCL BND NonConjugatedSingleBond AromaticSingleBond AromaticSingleBond NonConjugatedSingleBond NonConjugatedSingleBondInRing NonConjugatedSingleBondInRing AromaticDoubleBond AromaticSingleBond NonConjugatedSingleBond AromaticDoubleBond NonConjugatedSingleBond NonConjugatedSingleBondInRing NonConjugatedSingleBond NonConjugatedSingleBondInRing AromaticSingleBond AromaticSingleBond AromaticDoubleBond NonConjugatedSingleBond NonConjugatedSingleBondInRing NonConjugatedSingleBond NonConjugatedSingleBond NonConjugatedSingleBond NonConjugatedSingleBond AromaticDoubleBond ConjugatedSingleBond NonConjugatedSingleBond AromaticSingleBond ConjugatedSingleBond NonConjugatedSingleBond NonConjugatedSingleBond NonConjugatedSingleBond NonConjugatedSingleBond NonConjugatedSingleBond ConjugatedDoubleBond ConjugatedSingleBond ConjugatedSingleBond ConjugatedSingleBond ConjugatedSingleBond ConjugatedSingleBond ConjugatedDoubleBond ConjugatedSingleBond ConjugatedSingleBond ConjugatedDoubleBond ConjugatedDoubleBond NonConjugatedSingleBond
M  BCL CHI   2   R   7   R  13   S  17   S  35   R
M  BCL DBI - - - - - - - -
M  END
> <ConfClashScore>
0 

> <ConfOneFourInteractionScore>
-0.964191 

> <ConfScore>
-0.277632 

> <ConfScorePBest>
0.0122145 

> <ConfTolerance>
1.1437 

$$$$
ChEBI.****
  PyMOL2.5          3D                             0

 43 45  0  0  0  0  0  0  0  0999 V2000
    1.0370    0.7665    7.1311 N   0  0  0  1  0  0  0  0  0  0  0  0
    0.6384    0.7081    5.7149 C   0  0  0  1  0  0  0  0  0  0  0  0
    0.9917    1.5817    5.2081 H   0  0  0  1  0  0  0  0  0  0  0  0
    0.8195    1.8106    7.9927 C   0  0  0  1  0  0  0  0  0  0  0  0
    1.9076   -0.0628    7.7690 C   0  0  0  1  0  0  0  0  0  0  0  0
    2.2576   -0.9431    7.3400 H   0  0  0  1  0  0  0  0  0  0  0  0
   -0.8900    0.6014    5.5939 C   0  0  0  1  0  0  0  0  0  0  0  0
   -1.3777    1.1187    6.3936 H   0  0  0  1  0  0  0  0  0  0  0  0
    1.1519   -0.4448    5.1124 O   0  0  0  1  0  0  0  0  0  0  0  0
    1.5912    1.5270    9.1275 C   0  0  0  1  0  0  0  0  0  0  0  0
    0.0309    2.8706    7.8096 N   0  0  0  1  0  0  0  0  0  0  0  0
    2.2702    0.3302    8.9598 N   0  0  0  1  0  0  0  0  0  0  0  0
   -1.1261   -0.8959    5.6854 C   0  0  0  1  0  0  0  0  0  0  0  0
   -1.9944   -1.1837    5.1303 H   0  0  0  1  0  0  0  0  0  0  0  0
   -1.3454    1.1195    4.3432 O   0  0  0  1  0  0  0  0  0  0  0  0
   -2.1926    1.5540    4.4657 H   0  0  0  1  0  0  0  0  0  0  0  0
    0.1597   -1.4850    5.0543 C   0  0  0  1  0  0  0  0  0  0  0  0
   -0.0222   -1.7668    4.0382 H   0  0  0  1  0  0  0  0  0  0  0  0
    1.5107    2.4612   10.1560 C   0  0  0  1  0  0  0  0  0  0  0  0
    0.0561    3.6792    8.8619 C   0  0  0  1  0  0  0  0  0  0  0  0
   -0.5341    4.5323    8.7878 H   0  0  0  1  0  0  0  0  0  0  0  0
   -1.2715   -1.3186    7.0659 O   0  0  0  1  0  0  0  0  0  0  0  0
    0.6155   -2.6778    5.8285 C   0  0  0  1  0  0  0  0  0  0  0  0
   -0.0957   -3.4709    5.7281 H   0  0  0  1  0  0  0  0  0  0  0  0
    0.7223   -2.4224    6.8620 H   0  0  0  1  0  0  0  0  0  0  0  0
    0.7405    3.5446   10.0088 N   0  0  0  1  0  0  0  0  0  0  0  0
    2.2128    2.2823   11.3187 N   0  0  0  1  0  0  0  0  0  0  0  0
    2.1613    2.9539   12.0305 H   0  0  0  1  0  0  0  0  0  0  0  0
    2.7666    1.4827   11.4386 H   0  0  0  1  0  0  0  0  0  0  0  0
   -2.5943   -2.1563    7.5538 P   0  0  0  1  0  0  0  0  0  0  0  0
    1.8930   -3.0902    5.2883 O   0  0  0  1  0  0  0  0  0  0  0  0
   -3.8602   -1.3901    7.5231 O   0  0  0  1  0  0  0  0  0  0  0  0
   -2.4956   -2.3601    9.1579 O   0  5  0  1  0  0  0  0  0  0  0  0
   -2.6612   -3.6328    6.8904 O   0  5  0  1  0  0  0  0  0  0  0  0
    2.7670   -4.2753    5.9154 P   0  0  0  1  0  0  0  0  0  0  0  0
    1.9542   -5.6475    5.4002 O   0  0  0  1  0  0  0  0  0  0  0  0
    2.6836   -4.2134    7.4075 O   0  0  0  0  0  0  0  0  0  0  0  0
    4.0761   -4.2657    5.2366 O   0  0  0  1  0  0  0  0  0  0  0  0
    0.7271   -6.0094    4.5142 S   0  0  0  1  0  0  0  0  0  0  0  0
    0.0462   -7.1302    5.3262 O   0  0  0  1  0  0  0  0  0  0  0  0
    0.3899   -7.1307    6.2225 H   0  0  0  1  0  0  0  0  0  0  0  0
   -0.1439   -4.9582    4.3902 O   0  0  0  1  0  0  0  0  0  0  0  0
    1.2450   -6.8427    3.5242 O   0  0  0  1  0  0  0  0  0  0  0  0
  1  2  1  0  0  0  0
  1  4  1  0  0  0  0
  1  5  1  0  0  0  0
  2  3  1  0  0  0  0
  2  7  1  0  0  0  0
  2  9  1  0  0  0  0
  4 10  2  0  0  0  0
  4 11  1  0  0  0  0
  5  6  1  0  0  0  0
  5 12  2  0  0  0  0
  7  8  1  0  0  0  0
  7 13  1  0  0  0  0
  7 15  1  0  0  0  0
  9 17  1  0  0  0  0
 10 12  1  0  0  0  0
 10 19  1  0  0  0  0
 11 20  2  0  0  0  0
 13 14  1  0  0  0  0
 13 17  1  0  0  0  0
 13 22  1  0  0  0  0
 15 16  1  0  0  0  0
 17 18  1  0  0  0  0
 17 23  1  0  0  0  0
 19 26  2  0  0  0  0
 19 27  1  0  0  0  0
 20 21  1  0  0  0  0
 20 26  1  0  0  0  0
 22 30  1  0  0  0  0
 23 24  1  0  0  0  0
 23 25  1  0  0  0  0
 23 31  1  0  0  0  0
 27 28  1  0  0  0  0
 27 29  1  0  0  0  0
 30 32  2  0  0  0  0
 30 33  1  0  0  0  0
 30 34  1  0  0  0  0
 31 35  1  0  0  0  0
 35 36  1  0  0  0  0
 35 37  1  0  0  0  0
 35 38  2  0  0  0  0
 36 39  1  0  0  0  0
 39 40  1  0  0  0  0
 39 42  2  0  0  0  0
 39 43  2  0  0  0  0
 40 41  1  0  0  0  0
M  BCL ATM N_TrTrTrPi2 C_TeTeTeTe H_S C_TrTrTrPi C_TrTrTrPi H_S C_TeTeTeTe H_S O_Te2Te2TeTe C_TrTrTrPi N_Tr2TrTrPi N_Tr2TrTrPi C_TeTeTeTe H_S O_Te2Te2TeTe H_S C_TeTeTeTe H_S C_TrTrTrPi C_TrTrTrPi H_S O_Tr2TrTrPi2 C_TeTeTeTe H_S H_S N_Tr2TrTrPi N_TrTrTrPi2 H_S H_S P_TeTeTeTePi O_Tr2TrTrPi2 O_Tr2Tr2TrPi O_Te2Te2Te2Te O_Te2Te2Te2Te P_TeTeTeTePi O_Tr2TrTrPi2 O_Te2Te2TeTe O_Tr2Tr2TrPi S_TeTeTeTePiPi O_Te2Te2TeTe H_S O_Tr2Tr2TrPi O_Tr2Tr2TrPi
M  BCL BND NonConjugatedSingleBond AromaticSingleBond AromaticSingleBond NonConjugatedSingleBond NonConjugatedSingleBondInRing NonConjugatedSingleBondInRing AromaticDoubleBond AromaticSingleBond NonConjugatedSingleBond AromaticDoubleBond NonConjugatedSingleBond NonConjugatedSingleBondInRing NonConjugatedSingleBond NonConjugatedSingleBondInRing AromaticSingleBond AromaticSingleBond AromaticDoubleBond NonConjugatedSingleBond NonConjugatedSingleBondInRing NonConjugatedSingleBond NonConjugatedSingleBond NonConjugatedSingleBond NonConjugatedSingleBond AromaticDoubleBond ConjugatedSingleBond NonConjugatedSingleBond AromaticSingleBond ConjugatedSingleBond NonConjugatedSingleBond NonConjugatedSingleBond NonConjugatedSingleBond NonConjugatedSingleBond NonConjugatedSingleBond ConjugatedDoubleBond ConjugatedSingleBond ConjugatedSingleBond ConjugatedSingleBond ConjugatedSingleBond ConjugatedSingleBond ConjugatedDoubleBond ConjugatedSingleBond ConjugatedSingleBond ConjugatedDoubleBond ConjugatedDoubleBond NonConjugatedSingleBond
M  BCL CHI   2   R   7   R  13   S  17   S  35   R
M  BCL DBI - - - - - - - -
M  END
> <ConfClashScore>
0 

> <ConfOneFourInteractionScore>
-0.983639 

> <ConfScore>
-0.277404 

> <ConfScorePBest>
0.0121115 

> <ConfTolerance>
1.02768 

$$$$
ChEBI.****
  PyMOL2.5          3D                             0

 43 45  0  0  0  0  0  0  0  0999 V2000
    1.0856    0.8031    7.0916 N   0  0  0  1  0  0  0  0  0  0  0  0
    0.4065    0.5605    5.8364 C   0  0  0  1  0  0  0  0  0  0  0  0
    0.9190   -0.2075    5.2956 H   0  0  0  1  0  0  0  0  0  0  0  0
    0.8640    1.8350    7.9666 C   0  0  0  1  0  0  0  0  0  0  0  0
    1.9332   -0.0479    7.7321 C   0  0  0  1  0  0  0  0  0  0  0  0
    2.2807   -0.9252    7.2950 H   0  0  0  1  0  0  0  0  0  0  0  0
    0.3240    1.8488    5.0048 C   0  0  0  1  0  0  0  0  0  0  0  0
    0.2089    2.7070    5.6334 H   0  0  0  1  0  0  0  0  0  0  0  0
   -0.9314    0.2047    6.0563 O   0  0  0  1  0  0  0  0  0  0  0  0
    1.6096    1.5225    9.1112 C   0  0  0  1  0  0  0  0  0  0  0  0
    0.0924    2.9079    7.7863 N   0  0  0  1  0  0  0  0  0  0  0  0
    2.2770    0.3202    8.9363 N   0  0  0  1  0  0  0  0  0  0  0  0
   -0.9056    1.6221    4.1649 C   0  0  0  1  0  0  0  0  0  0  0  0
   -0.6700    1.0652    3.2821 H   0  0  0  1  0  0  0  0  0  0  0  0
    1.4839    2.0089    4.1869 O   0  0  0  1  0  0  0  0  0  0  0  0
    1.9832    1.1890    4.1748 H   0  0  0  1  0  0  0  0  0  0  0  0
   -1.8192    0.8177    5.0944 C   0  0  0  1  0  0  0  0  0  0  0  0
   -2.3505    0.0698    4.5437 H   0  0  0  1  0  0  0  0  0  0  0  0
    1.5203    2.4401   10.1538 C   0  0  0  1  0  0  0  0  0  0  0  0
    0.1067    3.6982    8.8527 C   0  0  0  1  0  0  0  0  0  0  0  0
   -0.4713    4.5599    8.7817 H   0  0  0  1  0  0  0  0  0  0  0  0
   -1.5212    2.8824    3.7928 O   0  0  0  1  0  0  0  0  0  0  0  0
   -2.7819    1.7076    5.7717 C   0  0  0  1  0  0  0  0  0  0  0  0
   -3.3958    2.1864    5.0377 H   0  0  0  1  0  0  0  0  0  0  0  0
   -2.2461    2.4485    6.3275 H   0  0  0  1  0  0  0  0  0  0  0  0
    0.7666    3.5355   10.0103 N   0  0  0  1  0  0  0  0  0  0  0  0
    2.1754    2.2821   11.3466 N   0  0  0  1  0  0  0  0  0  0  0  0
    2.7631    1.5101   11.4844 H   0  0  0  1  0  0  0  0  0  0  0  0
    2.0562    2.9411   12.0622 H   0  0  0  1  0  0  0  0  0  0  0  0
   -2.4563    2.9973    2.4503 P   0  0  0  1  0  0  0  0  0  0  0  0
   -3.6216    0.9499    6.6742 O   0  0  0  1  0  0  0  0  0  0  0  0
   -1.8492    2.3502    1.2658 O   0  0  0  1  0  0  0  0  0  0  0  0
   -2.6809    4.5624    2.0977 O   0  5  0  1  0  0  0  0  0  0  0  0
   -3.8397    2.3493    2.9894 O   0  5  0  1  0  0  0  0  0  0  0  0
   -4.5197    1.6274    7.8080 P   0  0  0  1  0  0  0  0  0  0  0  0
   -5.2509    0.3188    8.4266 O   0  0  0  1  0  0  0  0  0  0  0  0
   -5.5024    2.5856    7.1909 O   0  0  0  0  0  0  0  0  0  0  0  0
   -3.6437    2.1921    8.8836 O   0  0  0  1  0  0  0  0  0  0  0  0
   -6.4081    0.3591    9.5352 S   0  0  0  1  0  0  0  0  0  0  0  0
   -7.4381    1.2465    9.0328 O   0  0  0  1  0  0  0  0  0  0  0  0
   -7.5358    1.1206    8.0861 H   0  0  0  1  0  0  0  0  0  0  0  0
   -6.8116   -1.0252    9.5584 O   0  0  0  1  0  0  0  0  0  0  0  0
   -5.8124    0.8358   10.7484 O   0  0  0  1  0  0  0  0  0  0  0  0
  1  2  1  0  0  0  0
  1  4  1  0  0  0  0
  1  5  1  0  0  0  0
  2  3  1  0  0  0  0
  2  7  1  0  0  0  0
  2  9  1  0  0  0  0
  4 10  2  0  0  0  0
  4 11  1  0  0  0  0
  5  6  1  0  0  0  0
  5 12  2  0  0  0  0
  7  8  1  0  0  0  0
  7 13  1  0  0  0  0
  7 15  1  0  0  0  0
  9 17  1  0  0  0  0
 10 12  1  0  0  0  0
 10 19  1  0  0  0  0
 11 20  2  0  0  0  0
 13 14  1  0  0  0  0
 13 17  1  0  0  0  0
 13 22  1  0  0  0  0
 15 16  1  0  0  0  0
 17 18  1  0  0  0  0
 17 23  1  0  0  0  0
 19 26  2  0  0  0  0
 19 27  1  0  0  0  0
 20 21  1  0  0  0  0
 20 26  1  0  0  0  0
 22 30  1  0  0  0  0
 23 24  1  0  0  0  0
 23 25  1  0  0  0  0
 23 31  1  0  0  0  0
 27 28  1  0  0  0  0
 27 29  1  0  0  0  0
 30 32  2  0  0  0  0
 30 33  1  0  0  0  0
 30 34  1  0  0  0  0
 31 35  1  0  0  0  0
 35 36  1  0  0  0  0
 35 37  1  0  0  0  0
 35 38  2  0  0  0  0
 36 39  1  0  0  0  0
 39 40  1  0  0  0  0
 39 42  2  0  0  0  0
 39 43  2  0  0  0  0
 40 41  1  0  0  0  0
M  BCL ATM N_TrTrTrPi2 C_TeTeTeTe H_S C_TrTrTrPi C_TrTrTrPi H_S C_TeTeTeTe H_S O_Te2Te2TeTe C_TrTrTrPi N_Tr2TrTrPi N_Tr2TrTrPi C_TeTeTeTe H_S O_Te2Te2TeTe H_S C_TeTeTeTe H_S C_TrTrTrPi C_TrTrTrPi H_S O_Tr2TrTrPi2 C_TeTeTeTe H_S H_S N_Tr2TrTrPi N_TrTrTrPi2 H_S H_S P_TeTeTeTePi O_Tr2TrTrPi2 O_Tr2Tr2TrPi O_Te2Te2Te2Te O_Te2Te2Te2Te P_TeTeTeTePi O_Tr2TrTrPi2 O_Te2Te2TeTe O_Tr2Tr2TrPi S_TeTeTeTePiPi O_Te2Te2TeTe H_S O_Tr2Tr2TrPi O_Tr2Tr2TrPi
M  BCL BND NonConjugatedSingleBond AromaticSingleBond AromaticSingleBond NonConjugatedSingleBond NonConjugatedSingleBondInRing NonConjugatedSingleBondInRing AromaticDoubleBond AromaticSingleBond NonConjugatedSingleBond AromaticDoubleBond NonConjugatedSingleBond NonConjugatedSingleBondInRing NonConjugatedSingleBond NonConjugatedSingleBondInRing AromaticSingleBond AromaticSingleBond AromaticDoubleBond NonConjugatedSingleBond NonConjugatedSingleBondInRing NonConjugatedSingleBond NonConjugatedSingleBond NonConjugatedSingleBond NonConjugatedSingleBond AromaticDoubleBond ConjugatedSingleBond NonConjugatedSingleBond AromaticSingleBond ConjugatedSingleBond NonConjugatedSingleBond NonConjugatedSingleBond NonConjugatedSingleBond NonConjugatedSingleBond NonConjugatedSingleBond ConjugatedDoubleBond ConjugatedSingleBond ConjugatedSingleBond ConjugatedSingleBond ConjugatedSingleBond ConjugatedSingleBond ConjugatedDoubleBond ConjugatedSingleBond ConjugatedSingleBond ConjugatedDoubleBond ConjugatedDoubleBond NonConjugatedSingleBond
M  BCL CHI   2   R   7   R  13   S  17   S  35   R
M  BCL DBI - - - - - - - -
M  END
> <ConfClashScore>
0 

> <ConfOneFourInteractionScore>
-0.977702 

> <ConfScore>
-0.275323 

> <ConfScorePBest>
0.0120085 

> <ConfTolerance>
1.05079 

$$$$
ChEBI.****
  PyMOL2.5          3D                             0

 43 45  0  0  0  0  0  0  0  0999 V2000
    1.0711    0.7983    7.0984 N   0  0  0  1  0  0  0  0  0  0  0  0
    0.5337    0.5914    5.7703 C   0  0  0  1  0  0  0  0  0  0  0  0
   -0.5298    0.4886    5.8273 H   0  0  0  1  0  0  0  0  0  0  0  0
    0.8432    1.8260    7.9768 C   0  0  0  1  0  0  0  0  0  0  0  0
    1.9390   -0.0398    7.7286 C   0  0  0  1  0  0  0  0  0  0  0  0
    2.2952   -0.9113    7.2868 H   0  0  0  1  0  0  0  0  0  0  0  0
    1.1557   -0.6519    5.1315 C   0  0  0  1  0  0  0  0  0  0  0  0
    2.1533   -0.8160    5.4816 H   0  0  0  1  0  0  0  0  0  0  0  0
    0.8840    1.6850    4.9145 O   0  0  0  1  0  0  0  0  0  0  0  0
    1.6064    1.5243    9.1127 C   0  0  0  1  0  0  0  0  0  0  0  0
    0.0529    2.8868    7.8063 N   0  0  0  1  0  0  0  0  0  0  0  0
    2.2905    0.3327    8.9292 N   0  0  0  1  0  0  0  0  0  0  0  0
    1.1368   -0.2628    3.6606 C   0  0  0  1  0  0  0  0  0  0  0  0
    0.1958   -0.5150    3.2183 H   0  0  0  1  0  0  0  0  0  0  0  0
    0.3668   -1.8173    5.3757 O   0  0  0  1  0  0  0  0  0  0  0  0
    0.9439   -2.5627    5.5569 H   0  0  0  1  0  0  0  0  0  0  0  0
    1.3403    1.1900    3.6423 C   0  0  0  1  0  0  0  0  0  0  0  0
    0.7738    1.6320    2.8495 H   0  0  0  1  0  0  0  0  0  0  0  0
    1.5145    2.4396   10.1572 C   0  0  0  1  0  0  0  0  0  0  0  0
    0.0669    3.6765    8.8731 C   0  0  0  1  0  0  0  0  0  0  0  0
   -0.5253    4.5290    8.8095 H   0  0  0  1  0  0  0  0  0  0  0  0
    2.1939   -0.9278    2.9507 O   0  0  0  1  0  0  0  0  0  0  0  0
    2.7709    1.5013    3.4583 C   0  0  0  1  0  0  0  0  0  0  0  0
    3.0739    1.1996    2.4775 H   0  0  0  1  0  0  0  0  0  0  0  0
    3.3440    0.9692    4.1886 H   0  0  0  1  0  0  0  0  0  0  0  0
    0.7422    3.5232   10.0231 N   0  0  0  1  0  0  0  0  0  0  0  0
    2.1853    2.2909   11.3424 N   0  0  0  1  0  0  0  0  0  0  0  0
    1.9879    2.8864   12.0952 H   0  0  0  1  0  0  0  0  0  0  0  0
    2.8627    1.5891   11.4374 H   0  0  0  1  0  0  0  0  0  0  0  0
    3.3246   -1.9027    3.6295 P   0  0  0  1  0  0  0  0  0  0  0  0
    3.0028    2.9212    3.6129 O   0  0  0  1  0  0  0  0  0  0  0  0
    4.0367   -1.2421    4.7461 O   0  0  0  1  0  0  0  0  0  0  0  0
    4.4257   -2.2298    2.4871 O   0  5  0  1  0  0  0  0  0  0  0  0
    2.6815   -3.3179    4.0857 O   0  5  0  1  0  0  0  0  0  0  0  0
    4.3649    3.5173    3.3449 P   0  0  0  1  0  0  0  0  0  0  0  0
    4.7157    3.2615    1.7825 O   0  0  0  1  0  0  0  0  0  0  0  0
    5.4736    2.7376    4.0341 O   0  0  0  0  0  0  0  0  0  0  0  0
    4.4520    5.0079    3.5575 O   0  0  0  1  0  0  0  0  0  0  0  0
    4.0134    4.0104    0.5588 S   0  0  0  1  0  0  0  0  0  0  0  0
    2.9933    3.1120    0.0557 O   0  0  0  1  0  0  0  0  0  0  0  0
    2.7089    2.5240    0.7592 H   0  0  0  1  0  0  0  0  0  0  0  0
    3.4482    5.2246    1.0936 O   0  0  0  1  0  0  0  0  0  0  0  0
    5.1137    4.2074   -0.3381 O   0  0  0  1  0  0  0  0  0  0  0  0
  1  2  1  0  0  0  0
  1  4  1  0  0  0  0
  1  5  1  0  0  0  0
  2  3  1  0  0  0  0
  2  7  1  0  0  0  0
  2  9  1  0  0  0  0
  4 10  2  0  0  0  0
  4 11  1  0  0  0  0
  5  6  1  0  0  0  0
  5 12  2  0  0  0  0
  7  8  1  0  0  0  0
  7 13  1  0  0  0  0
  7 15  1  0  0  0  0
  9 17  1  0  0  0  0
 10 12  1  0  0  0  0
 10 19  1  0  0  0  0
 11 20  2  0  0  0  0
 13 14  1  0  0  0  0
 13 17  1  0  0  0  0
 13 22  1  0  0  0  0
 15 16  1  0  0  0  0
 17 18  1  0  0  0  0
 17 23  1  0  0  0  0
 19 26  2  0  0  0  0
 19 27  1  0  0  0  0
 20 21  1  0  0  0  0
 20 26  1  0  0  0  0
 22 30  1  0  0  0  0
 23 24  1  0  0  0  0
 23 25  1  0  0  0  0
 23 31  1  0  0  0  0
 27 28  1  0  0  0  0
 27 29  1  0  0  0  0
 30 32  2  0  0  0  0
 30 33  1  0  0  0  0
 30 34  1  0  0  0  0
 31 35  1  0  0  0  0
 35 36  1  0  0  0  0
 35 37  1  0  0  0  0
 35 38  2  0  0  0  0
 36 39  1  0  0  0  0
 39 40  1  0  0  0  0
 39 42  2  0  0  0  0
 39 43  2  0  0  0  0
 40 41  1  0  0  0  0
M  BCL ATM N_TrTrTrPi2 C_TeTeTeTe H_S C_TrTrTrPi C_TrTrTrPi H_S C_TeTeTeTe H_S O_Te2Te2TeTe C_TrTrTrPi N_Tr2TrTrPi N_Tr2TrTrPi C_TeTeTeTe H_S O_Te2Te2TeTe H_S C_TeTeTeTe H_S C_TrTrTrPi C_TrTrTrPi H_S O_Tr2TrTrPi2 C_TeTeTeTe H_S H_S N_Tr2TrTrPi N_TrTrTrPi2 H_S H_S P_TeTeTeTePi O_Tr2TrTrPi2 O_Tr2Tr2TrPi O_Te2Te2Te2Te O_Te2Te2Te2Te P_TeTeTeTePi O_Tr2TrTrPi2 O_Te2Te2TeTe O_Tr2Tr2TrPi S_TeTeTeTePiPi O_Te2Te2TeTe H_S O_Tr2Tr2TrPi O_Tr2Tr2TrPi
M  BCL BND NonConjugatedSingleBond AromaticSingleBond AromaticSingleBond NonConjugatedSingleBond NonConjugatedSingleBondInRing NonConjugatedSingleBondInRing AromaticDoubleBond AromaticSingleBond NonConjugatedSingleBond AromaticDoubleBond NonConjugatedSingleBond NonConjugatedSingleBondInRing NonConjugatedSingleBond NonConjugatedSingleBondInRing AromaticSingleBond AromaticSingleBond AromaticDoubleBond NonConjugatedSingleBond NonConjugatedSingleBondInRing NonConjugatedSingleBond NonConjugatedSingleBond NonConjugatedSingleBond NonConjugatedSingleBond AromaticDoubleBond ConjugatedSingleBond NonConjugatedSingleBond AromaticSingleBond ConjugatedSingleBond NonConjugatedSingleBond NonConjugatedSingleBond NonConjugatedSingleBond NonConjugatedSingleBond NonConjugatedSingleBond ConjugatedDoubleBond ConjugatedSingleBond ConjugatedSingleBond ConjugatedSingleBond ConjugatedSingleBond ConjugatedSingleBond ConjugatedDoubleBond ConjugatedSingleBond ConjugatedSingleBond ConjugatedDoubleBond ConjugatedDoubleBond NonConjugatedSingleBond
M  BCL CHI   2   R   7   R  13   S  17   S  35   R
M  BCL DBI - - - - - - - -
M  END
> <ConfClashScore>
0 

> <ConfOneFourInteractionScore>
-0.970349 

> <ConfScore>
-0.274207 

> <ConfScorePBest>
0.0119055 

> <ConfTolerance>
1.11849 

$$$$
ChEBI.****
  PyMOL2.5          3D                             0

 43 45  0  0  0  0  0  0  0  0999 V2000
    1.0634    0.7870    7.1044 N   0  0  0  1  0  0  0  0  0  0  0  0
    0.4952    0.6256    5.7748 C   0  0  0  1  0  0  0  0  0  0  0  0
    1.0331   -0.1336    5.2463 H   0  0  0  1  0  0  0  0  0  0  0  0
    0.8465    1.8225    7.9764 C   0  0  0  1  0  0  0  0  0  0  0  0
    1.9201   -0.0578    7.7411 C   0  0  0  1  0  0  0  0  0  0  0  0
    2.2666   -0.9361    7.3050 H   0  0  0  1  0  0  0  0  0  0  0  0
    0.5295    1.9531    5.0038 C   0  0  0  1  0  0  0  0  0  0  0  0
    0.3816    2.7846    5.6607 H   0  0  0  1  0  0  0  0  0  0  0  0
   -0.8674    0.3060    5.8525 O   0  0  0  1  0  0  0  0  0  0  0  0
    1.6041    1.5184    9.1154 C   0  0  0  1  0  0  0  0  0  0  0  0
    0.0694    2.8918    7.7982 N   0  0  0  1  0  0  0  0  0  0  0  0
    2.2740    0.3175    8.9401 N   0  0  0  1  0  0  0  0  0  0  0  0
   -0.6221    1.8079    4.0439 C   0  0  0  1  0  0  0  0  0  0  0  0
   -0.3215    1.2849    3.1602 H   0  0  0  1  0  0  0  0  0  0  0  0
    1.7653    2.1112    4.3053 O   0  0  0  1  0  0  0  0  0  0  0  0
    2.0856    3.0089    4.4199 H   0  0  0  1  0  0  0  0  0  0  0  0
   -1.6424    0.9930    4.8442 C   0  0  0  1  0  0  0  0  0  0  0  0
   -2.1418    0.2901    4.2106 H   0  0  0  1  0  0  0  0  0  0  0  0
    1.5215    2.4408   10.1543 C   0  0  0  1  0  0  0  0  0  0  0  0
    0.0911    3.6875    8.8604 C   0  0  0  1  0  0  0  0  0  0  0  0
   -0.4907    4.5467    8.7907 H   0  0  0  1  0  0  0  0  0  0  0  0
   -1.1629    3.1057    3.6789 O   0  0  0  1  0  0  0  0  0  0  0  0
   -2.6375    1.8829    5.4730 C   0  0  0  1  0  0  0  0  0  0  0  0
   -3.2357    2.3368    4.7107 H   0  0  0  1  0  0  0  0  0  0  0  0
   -2.1291    2.6434    6.0281 H   0  0  0  1  0  0  0  0  0  0  0  0
    0.7626    3.5329   10.0125 N   0  0  0  1  0  0  0  0  0  0  0  0
    2.1884    2.2911   11.3415 N   0  0  0  1  0  0  0  0  0  0  0  0
    2.7025    1.4750   11.5152 H   0  0  0  1  0  0  0  0  0  0  0  0
    2.1515    3.0001   12.0171 H   0  0  0  1  0  0  0  0  0  0  0  0
   -1.7696    3.4386    2.1920 P   0  0  0  1  0  0  0  0  0  0  0  0
   -3.4951    1.1307    6.3684 O   0  0  0  1  0  0  0  0  0  0  0  0
   -2.9387    2.6414    1.7585 O   0  0  0  1  0  0  0  0  0  0  0  0
   -0.4776    3.2676    1.2297 O   0  5  0  1  0  0  0  0  0  0  0  0
   -2.0252    5.0238    2.4070 O   0  5  0  1  0  0  0  0  0  0  0  0
   -4.6406    1.9079    7.1623 P   0  0  0  1  0  0  0  0  0  0  0  0
   -5.0876    0.7080    8.1702 O   0  0  0  1  0  0  0  0  0  0  0  0
   -5.7622    2.2685    6.2662 O   0  0  0  0  0  0  0  0  0  0  0  0
   -3.9941    2.8726    7.9995 O   0  0  0  1  0  0  0  0  0  0  0  0
   -4.0722   -0.0870    9.1824 S   0  0  0  1  0  0  0  0  0  0  0  0
   -2.9161   -0.1196    8.3273 O   0  0  0  1  0  0  0  0  0  0  0  0
   -3.1556   -0.4995    7.4788 H   0  0  0  1  0  0  0  0  0  0  0  0
   -3.9135    0.7093   10.3563 O   0  0  0  1  0  0  0  0  0  0  0  0
   -4.6443   -1.3730    9.3998 O   0  0  0  1  0  0  0  0  0  0  0  0
  1  2  1  0  0  0  0
  1  4  1  0  0  0  0
  1  5  1  0  0  0  0
  2  3  1  0  0  0  0
  2  7  1  0  0  0  0
  2  9  1  0  0  0  0
  4 10  2  0  0  0  0
  4 11  1  0  0  0  0
  5  6  1  0  0  0  0
  5 12  2  0  0  0  0
  7  8  1  0  0  0  0
  7 13  1  0  0  0  0
  7 15  1  0  0  0  0
  9 17  1  0  0  0  0
 10 12  1  0  0  0  0
 10 19  1  0  0  0  0
 11 20  2  0  0  0  0
 13 14  1  0  0  0  0
 13 17  1  0  0  0  0
 13 22  1  0  0  0  0
 15 16  1  0  0  0  0
 17 18  1  0  0  0  0
 17 23  1  0  0  0  0
 19 26  2  0  0  0  0
 19 27  1  0  0  0  0
 20 21  1  0  0  0  0
 20 26  1  0  0  0  0
 22 30  1  0  0  0  0
 23 24  1  0  0  0  0
 23 25  1  0  0  0  0
 23 31  1  0  0  0  0
 27 28  1  0  0  0  0
 27 29  1  0  0  0  0
 30 32  2  0  0  0  0
 30 33  1  0  0  0  0
 30 34  1  0  0  0  0
 31 35  1  0  0  0  0
 35 36  1  0  0  0  0
 35 37  1  0  0  0  0
 35 38  2  0  0  0  0
 36 39  1  0  0  0  0
 39 40  1  0  0  0  0
 39 42  2  0  0  0  0
 39 43  2  0  0  0  0
 40 41  1  0  0  0  0
M  BCL ATM N_TrTrTrPi2 C_TeTeTeTe H_S C_TrTrTrPi C_TrTrTrPi H_S C_TeTeTeTe H_S O_Te2Te2TeTe C_TrTrTrPi N_Tr2TrTrPi N_Tr2TrTrPi C_TeTeTeTe H_S O_Te2Te2TeTe H_S C_TeTeTeTe H_S C_TrTrTrPi C_TrTrTrPi H_S O_Tr2TrTrPi2 C_TeTeTeTe H_S H_S N_Tr2TrTrPi N_TrTrTrPi2 H_S H_S P_TeTeTeTePi O_Tr2TrTrPi2 O_Tr2Tr2TrPi O_Te2Te2Te2Te O_Te2Te2Te2Te P_TeTeTeTePi O_Tr2TrTrPi2 O_Te2Te2TeTe O_Tr2Tr2TrPi S_TeTeTeTePiPi O_Te2Te2TeTe H_S O_Tr2Tr2TrPi O_Tr2Tr2TrPi
M  BCL BND NonConjugatedSingleBond AromaticSingleBond AromaticSingleBond NonConjugatedSingleBond NonConjugatedSingleBondInRing NonConjugatedSingleBondInRing AromaticDoubleBond AromaticSingleBond NonConjugatedSingleBond AromaticDoubleBond NonConjugatedSingleBond NonConjugatedSingleBondInRing NonConjugatedSingleBond NonConjugatedSingleBondInRing AromaticSingleBond AromaticSingleBond AromaticDoubleBond NonConjugatedSingleBond NonConjugatedSingleBondInRing NonConjugatedSingleBond NonConjugatedSingleBond NonConjugatedSingleBond NonConjugatedSingleBond AromaticDoubleBond ConjugatedSingleBond NonConjugatedSingleBond AromaticSingleBond ConjugatedSingleBond NonConjugatedSingleBond NonConjugatedSingleBond NonConjugatedSingleBond NonConjugatedSingleBond NonConjugatedSingleBond ConjugatedDoubleBond ConjugatedSingleBond ConjugatedSingleBond ConjugatedSingleBond ConjugatedSingleBond ConjugatedSingleBond ConjugatedDoubleBond ConjugatedSingleBond ConjugatedSingleBond ConjugatedDoubleBond ConjugatedDoubleBond NonConjugatedSingleBond
M  BCL CHI   2   R   7   R  13   S  17   S  35   R
M  BCL DBI - - - - - - - -
M  END
> <ConfClashScore>
0 

> <ConfOneFourInteractionScore>
-0.979714 

> <ConfScore>
-0.273574 

> <ConfScorePBest>
0.0118025 

> <ConfTolerance>
1.07453 

$$$$
ChEBI.****
  PyMOL2.5          3D                             0

 43 45  0  0  0  0  0  0  0  0999 V2000
    1.0675    0.7875    7.1164 N   0  0  0  1  0  0  0  0  0  0  0  0
    0.5011    0.6159    5.7782 C   0  0  0  1  0  0  0  0  0  0  0  0
   -0.5642    0.5443    5.8478 H   0  0  0  1  0  0  0  0  0  0  0  0
    0.8454    1.8278    7.9813 C   0  0  0  1  0  0  0  0  0  0  0  0
    1.9237   -0.0516    7.7611 C   0  0  0  1  0  0  0  0  0  0  0  0
    2.2735   -0.9318    7.3316 H   0  0  0  1  0  0  0  0  0  0  0  0
    1.0789   -0.6421    5.1106 C   0  0  0  1  0  0  0  0  0  0  0  0
    1.2951   -1.3991    5.8353 H   0  0  0  1  0  0  0  0  0  0  0  0
    0.8638    1.6872    4.9556 O   0  0  0  1  0  0  0  0  0  0  0  0
    1.5996    1.5321    9.1248 C   0  0  0  1  0  0  0  0  0  0  0  0
    0.0667    2.8944    7.7940 N   0  0  0  1  0  0  0  0  0  0  0  0
    2.2726    0.3317    8.9591 N   0  0  0  1  0  0  0  0  0  0  0  0
    2.3514   -0.1208    4.4665 C   0  0  0  1  0  0  0  0  0  0  0  0
    2.5908   -0.6747    3.5829 H   0  0  0  1  0  0  0  0  0  0  0  0
    0.1810   -1.1637    4.1298 O   0  0  0  1  0  0  0  0  0  0  0  0
   -0.4655   -0.4928    3.8983 H   0  0  0  1  0  0  0  0  0  0  0  0
    1.9869    1.3449    4.1241 C   0  0  0  1  0  0  0  0  0  0  0  0
    1.7218    1.4289    3.0909 H   0  0  0  1  0  0  0  0  0  0  0  0
    1.5115    2.4606   10.1578 C   0  0  0  1  0  0  0  0  0  0  0  0
    0.0830    3.6965    8.8515 C   0  0  0  1  0  0  0  0  0  0  0  0
   -0.5003    4.5541    8.7746 H   0  0  0  1  0  0  0  0  0  0  0  0
    3.4620   -0.1789    5.3876 O   0  0  0  1  0  0  0  0  0  0  0  0
    3.1271    2.2357    4.4140 C   0  0  0  1  0  0  0  0  0  0  0  0
    2.8501    3.2455    4.1940 H   0  0  0  1  0  0  0  0  0  0  0  0
    3.9593    1.9526    3.8040 H   0  0  0  1  0  0  0  0  0  0  0  0
    0.7508    3.5502   10.0068 N   0  0  0  1  0  0  0  0  0  0  0  0
    2.1937    2.2707   11.3241 N   0  0  0  1  0  0  0  0  0  0  0  0
    2.7163    1.4526   11.4584 H   0  0  0  1  0  0  0  0  0  0  0  0
    2.1611    2.9524   12.0274 H   0  0  0  1  0  0  0  0  0  0  0  0
    4.8698   -0.9485    5.0478 P   0  0  0  1  0  0  0  0  0  0  0  0
    3.5029    2.1377    5.8079 O   0  0  0  1  0  0  0  0  0  0  0  0
    4.9325   -1.2099    3.5924 O   0  0  0  1  0  0  0  0  0  0  0  0
    4.6501   -2.3120    5.8944 O   0  5  0  1  0  0  0  0  0  0  0  0
    6.1212   -0.0910    5.6162 O   0  5  0  1  0  0  0  0  0  0  0  0
    4.7690    2.9390    6.4480 P   0  0  0  1  0  0  0  0  0  0  0  0
    5.9209    2.4141    5.4345 O   0  0  0  1  0  0  0  0  0  0  0  0
    5.0080    2.4446    7.8266 O   0  0  0  0  0  0  0  0  0  0  0  0
    4.5889    4.3901    6.1933 O   0  0  0  1  0  0  0  0  0  0  0  0
    6.9976    3.3705    4.6847 S   0  0  0  1  0  0  0  0  0  0  0  0
    6.9686    2.9543    3.3002 O   0  0  0  1  0  0  0  0  0  0  0  0
    6.9238    3.7282    2.7339 H   0  0  0  1  0  0  0  0  0  0  0  0
    6.5045    4.7154    4.8884 O   0  0  0  1  0  0  0  0  0  0  0  0
    8.2185    3.0583    5.3877 O   0  0  0  1  0  0  0  0  0  0  0  0
  1  2  1  0  0  0  0
  1  4  1  0  0  0  0
  1  5  1  0  0  0  0
  2  3  1  0  0  0  0
  2  7  1  0  0  0  0
  2  9  1  0  0  0  0
  4 10  2  0  0  0  0
  4 11  1  0  0  0  0
  5  6  1  0  0  0  0
  5 12  2  0  0  0  0
  7  8  1  0  0  0  0
  7 13  1  0  0  0  0
  7 15  1  0  0  0  0
  9 17  1  0  0  0  0
 10 12  1  0  0  0  0
 10 19  1  0  0  0  0
 11 20  2  0  0  0  0
 13 14  1  0  0  0  0
 13 17  1  0  0  0  0
 13 22  1  0  0  0  0
 15 16  1  0  0  0  0
 17 18  1  0  0  0  0
 17 23  1  0  0  0  0
 19 26  2  0  0  0  0
 19 27  1  0  0  0  0
 20 21  1  0  0  0  0
 20 26  1  0  0  0  0
 22 30  1  0  0  0  0
 23 24  1  0  0  0  0
 23 25  1  0  0  0  0
 23 31  1  0  0  0  0
 27 28  1  0  0  0  0
 27 29  1  0  0  0  0
 30 32  2  0  0  0  0
 30 33  1  0  0  0  0
 30 34  1  0  0  0  0
 31 35  1  0  0  0  0
 35 36  1  0  0  0  0
 35 37  1  0  0  0  0
 35 38  2  0  0  0  0
 36 39  1  0  0  0  0
 39 40  1  0  0  0  0
 39 42  2  0  0  0  0
 39 43  2  0  0  0  0
 40 41  1  0  0  0  0
M  BCL ATM N_TrTrTrPi2 C_TeTeTeTe H_S C_TrTrTrPi C_TrTrTrPi H_S C_TeTeTeTe H_S O_Te2Te2TeTe C_TrTrTrPi N_Tr2TrTrPi N_Tr2TrTrPi C_TeTeTeTe H_S O_Te2Te2TeTe H_S C_TeTeTeTe H_S C_TrTrTrPi C_TrTrTrPi H_S O_Tr2TrTrPi2 C_TeTeTeTe H_S H_S N_Tr2TrTrPi N_TrTrTrPi2 H_S H_S P_TeTeTeTePi O_Tr2TrTrPi2 O_Tr2Tr2TrPi O_Te2Te2Te2Te O_Te2Te2Te2Te P_TeTeTeTePi O_Tr2TrTrPi2 O_Te2Te2TeTe O_Tr2Tr2TrPi S_TeTeTeTePiPi O_Te2Te2TeTe H_S O_Tr2Tr2TrPi O_Tr2Tr2TrPi
M  BCL BND NonConjugatedSingleBond AromaticSingleBond AromaticSingleBond NonConjugatedSingleBond NonConjugatedSingleBondInRing NonConjugatedSingleBondInRing AromaticDoubleBond AromaticSingleBond NonConjugatedSingleBond AromaticDoubleBond NonConjugatedSingleBond NonConjugatedSingleBondInRing NonConjugatedSingleBond NonConjugatedSingleBondInRing AromaticSingleBond AromaticSingleBond AromaticDoubleBond NonConjugatedSingleBond NonConjugatedSingleBondInRing NonConjugatedSingleBond NonConjugatedSingleBond NonConjugatedSingleBond NonConjugatedSingleBond AromaticDoubleBond ConjugatedSingleBond NonConjugatedSingleBond AromaticSingleBond ConjugatedSingleBond NonConjugatedSingleBond NonConjugatedSingleBond NonConjugatedSingleBond NonConjugatedSingleBond NonConjugatedSingleBond ConjugatedDoubleBond ConjugatedSingleBond ConjugatedSingleBond ConjugatedSingleBond ConjugatedSingleBond ConjugatedSingleBond ConjugatedDoubleBond ConjugatedSingleBond ConjugatedSingleBond ConjugatedDoubleBond ConjugatedDoubleBond NonConjugatedSingleBond
M  BCL CHI   2   R   7   R  13   S  17   S  35   R
M  BCL DBI - - - - - - - -
M  END
> <ConfClashScore>
0 

> <ConfOneFourInteractionScore>
-0.976245 

> <ConfScore>
-0.269791 

> <ConfScorePBest>
0.0116995 

> <ConfTolerance>
1.13336 

$$$$
ChEBI.****
  PyMOL2.5          3D                             0

 43 45  0  0  0  0  0  0  0  0999 V2000
    1.0543    0.7757    7.0977 N   0  0  0  1  0  0  0  0  0  0  0  0
    0.5451    0.6681    5.7193 C   0  0  0  1  0  0  0  0  0  0  0  0
   -0.5034    0.8812    5.7082 H   0  0  0  1  0  0  0  0  0  0  0  0
    0.8373    1.8062    7.9755 C   0  0  0  1  0  0  0  0  0  0  0  0
    1.9234   -0.0647    7.7232 C   0  0  0  1  0  0  0  0  0  0  0  0
    2.2727   -0.9386    7.2807 H   0  0  0  1  0  0  0  0  0  0  0  0
    0.8158   -0.7293    5.1538 C   0  0  0  1  0  0  0  0  0  0  0  0
    1.6276   -1.2005    5.6673 H   0  0  0  1  0  0  0  0  0  0  0  0
    1.2559    1.5723    4.8438 O   0  0  0  1  0  0  0  0  0  0  0  0
    1.6077    1.5038    9.1064 C   0  0  0  1  0  0  0  0  0  0  0  0
    0.0503    2.8700    7.8085 N   0  0  0  1  0  0  0  0  0  0  0  0
    2.2854    0.3089    8.9204 N   0  0  0  1  0  0  0  0  0  0  0  0
    1.1726   -0.4542    3.7165 C   0  0  0  1  0  0  0  0  0  0  0  0
    0.2951   -0.3789    3.1089 H   0  0  0  1  0  0  0  0  0  0  0  0
   -0.3478   -1.5527    5.2442 O   0  0  0  1  0  0  0  0  0  0  0  0
   -0.5058   -1.7845    6.1623 H   0  0  0  1  0  0  0  0  0  0  0  0
    1.9038    0.8933    3.8026 C   0  0  0  1  0  0  0  0  0  0  0  0
    1.8125    1.4334    2.8834 H   0  0  0  1  0  0  0  0  0  0  0  0
    1.5274    2.4217   10.1495 C   0  0  0  1  0  0  0  0  0  0  0  0
    0.0755    3.6619    8.8735 C   0  0  0  1  0  0  0  0  0  0  0  0
   -0.5136    4.5168    8.8125 H   0  0  0  1  0  0  0  0  0  0  0  0
    2.0330   -1.4778    3.1915 O   0  0  0  1  0  0  0  0  0  0  0  0
    3.3488    0.6917    4.1209 C   0  0  0  1  0  0  0  0  0  0  0  0
    3.8223    1.6379    4.2801 H   0  0  0  1  0  0  0  0  0  0  0  0
    3.8320    0.1817    3.3139 H   0  0  0  1  0  0  0  0  0  0  0  0
    0.7587    3.5082   10.0188 N   0  0  0  1  0  0  0  0  0  0  0  0
    2.1914    2.3245   11.3675 N   0  0  0  1  0  0  0  0  0  0  0  0
    2.0293    2.9901   12.0684 H   0  0  0  1  0  0  0  0  0  0  0  0
    2.8213    1.5906   11.5251 H   0  0  0  1  0  0  0  0  0  0  0  0
    2.1625   -1.8876    1.6088 P   0  0  0  1  0  0  0  0  0  0  0  0
    3.4250   -0.0959    5.3089 O   0  0  0  1  0  0  0  0  0  0  0  0
    1.0023   -1.3532    0.8612 O   0  0  0  1  0  0  0  0  0  0  0  0
    2.1722   -3.5067    1.6599 O   0  5  0  1  0  0  0  0  0  0  0  0
    3.5908   -1.2474    1.1911 O   0  5  0  1  0  0  0  0  0  0  0  0
    4.7259   -0.7478    5.9982 P   0  0  0  1  0  0  0  0  0  0  0  0
    5.5088    0.6156    6.3953 O   0  0  0  1  0  0  0  0  0  0  0  0
    5.4370   -1.4124    4.8787 O   0  0  0  0  0  0  0  0  0  0  0  0
    4.3515   -1.5185    7.2060 O   0  0  0  1  0  0  0  0  0  0  0  0
    6.8382    0.6713    7.2183 S   0  0  0  1  0  0  0  0  0  0  0  0
    7.6442   -0.2234    6.4394 O   0  0  0  1  0  0  0  0  0  0  0  0
    8.1918    0.2827    5.8347 H   0  0  0  1  0  0  0  0  0  0  0  0
    7.3319    1.9818    7.2196 O   0  0  0  1  0  0  0  0  0  0  0  0
    6.5472    0.1857    8.5012 O   0  0  0  1  0  0  0  0  0  0  0  0
  1  2  1  0  0  0  0
  1  4  1  0  0  0  0
  1  5  1  0  0  0  0
  2  3  1  0  0  0  0
  2  7  1  0  0  0  0
  2  9  1  0  0  0  0
  4 10  2  0  0  0  0
  4 11  1  0  0  0  0
  5  6  1  0  0  0  0
  5 12  2  0  0  0  0
  7  8  1  0  0  0  0
  7 13  1  0  0  0  0
  7 15  1  0  0  0  0
  9 17  1  0  0  0  0
 10 12  1  0  0  0  0
 10 19  1  0  0  0  0
 11 20  2  0  0  0  0
 13 14  1  0  0  0  0
 13 17  1  0  0  0  0
 13 22  1  0  0  0  0
 15 16  1  0  0  0  0
 17 18  1  0  0  0  0
 17 23  1  0  0  0  0
 19 26  2  0  0  0  0
 19 27  1  0  0  0  0
 20 21  1  0  0  0  0
 20 26  1  0  0  0  0
 22 30  1  0  0  0  0
 23 24  1  0  0  0  0
 23 25  1  0  0  0  0
 23 31  1  0  0  0  0
 27 28  1  0  0  0  0
 27 29  1  0  0  0  0
 30 32  2  0  0  0  0
 30 33  1  0  0  0  0
 30 34  1  0  0  0  0
 31 35  1  0  0  0  0
 35 36  1  0  0  0  0
 35 37  1  0  0  0  0
 35 38  2  0  0  0  0
 36 39  1  0  0  0  0
 39 40  1  0  0  0  0
 39 42  2  0  0  0  0
 39 43  2  0  0  0  0
 40 41  1  0  0  0  0
M  BCL ATM N_TrTrTrPi2 C_TeTeTeTe H_S C_TrTrTrPi C_TrTrTrPi H_S C_TeTeTeTe H_S O_Te2Te2TeTe C_TrTrTrPi N_Tr2TrTrPi N_Tr2TrTrPi C_TeTeTeTe H_S O_Te2Te2TeTe H_S C_TeTeTeTe H_S C_TrTrTrPi C_TrTrTrPi H_S O_Tr2TrTrPi2 C_TeTeTeTe H_S H_S N_Tr2TrTrPi N_TrTrTrPi2 H_S H_S P_TeTeTeTePi O_Tr2TrTrPi2 O_Tr2Tr2TrPi O_Te2Te2Te2Te O_Te2Te2Te2Te P_TeTeTeTePi O_Tr2TrTrPi2 O_Te2Te2TeTe O_Tr2Tr2TrPi S_TeTeTeTePiPi O_Te2Te2TeTe H_S O_Tr2Tr2TrPi O_Tr2Tr2TrPi
M  BCL BND NonConjugatedSingleBond AromaticSingleBond AromaticSingleBond NonConjugatedSingleBond NonConjugatedSingleBondInRing NonConjugatedSingleBondInRing AromaticDoubleBond AromaticSingleBond NonConjugatedSingleBond AromaticDoubleBond NonConjugatedSingleBond NonConjugatedSingleBondInRing NonConjugatedSingleBond NonConjugatedSingleBondInRing AromaticSingleBond AromaticSingleBond AromaticDoubleBond NonConjugatedSingleBond NonConjugatedSingleBondInRing NonConjugatedSingleBond NonConjugatedSingleBond NonConjugatedSingleBond NonConjugatedSingleBond AromaticDoubleBond ConjugatedSingleBond NonConjugatedSingleBond AromaticSingleBond ConjugatedSingleBond NonConjugatedSingleBond NonConjugatedSingleBond NonConjugatedSingleBond NonConjugatedSingleBond NonConjugatedSingleBond ConjugatedDoubleBond ConjugatedSingleBond ConjugatedSingleBond ConjugatedSingleBond ConjugatedSingleBond ConjugatedSingleBond ConjugatedDoubleBond ConjugatedSingleBond ConjugatedSingleBond ConjugatedDoubleBond ConjugatedDoubleBond NonConjugatedSingleBond
M  BCL CHI   2   R   7   R  13   S  17   S  35   R
M  BCL DBI - - - - - - - -
M  END
> <ConfClashScore>
0 

> <ConfOneFourInteractionScore>
-0.987204 

> <ConfScore>
-0.26897 

> <ConfScorePBest>
0.0115965 

> <ConfTolerance>
1.11322 

$$$$
ChEBI.****
  PyMOL2.5          3D                             0

 43 45  0  0  0  0  0  0  0  0999 V2000
    1.0695    0.7869    7.1050 N   0  0  0  1  0  0  0  0  0  0  0  0
    0.4951    0.6212    5.7583 C   0  0  0  1  0  0  0  0  0  0  0  0
    1.2159    0.9146    5.0240 H   0  0  0  1  0  0  0  0  0  0  0  0
    0.8473    1.8209    7.9774 C   0  0  0  1  0  0  0  0  0  0  0  0
    1.9304   -0.0538    7.7412 C   0  0  0  1  0  0  0  0  0  0  0  0
    2.2813   -0.9301    7.3047 H   0  0  0  1  0  0  0  0  0  0  0  0
   -0.7859    1.4485    5.6148 C   0  0  0  1  0  0  0  0  0  0  0  0
   -1.2218    1.6499    6.5710 H   0  0  0  1  0  0  0  0  0  0  0  0
    0.0840   -0.7483    5.5471 O   0  0  0  1  0  0  0  0  0  0  0  0
    1.6063    1.5200    9.1164 C   0  0  0  1  0  0  0  0  0  0  0  0
    0.0648    2.8863    7.7997 N   0  0  0  1  0  0  0  0  0  0  0  0
    2.2823    0.3226    8.9405 N   0  0  0  1  0  0  0  0  0  0  0  0
   -1.6785    0.5579    4.7909 C   0  0  0  1  0  0  0  0  0  0  0  0
   -1.4844    0.6782    3.7455 H   0  0  0  1  0  0  0  0  0  0  0  0
   -0.5272    2.6803    4.9397 O   0  0  0  1  0  0  0  0  0  0  0  0
   -1.2181    2.8426    4.2932 H   0  0  0  1  0  0  0  0  0  0  0  0
   -1.2862   -0.8477    5.2687 C   0  0  0  1  0  0  0  0  0  0  0  0
   -1.4657   -1.5724    4.5022 H   0  0  0  1  0  0  0  0  0  0  0  0
    1.5189    2.4415   10.1557 C   0  0  0  1  0  0  0  0  0  0  0  0
    0.0824    3.6816    8.8624 C   0  0  0  1  0  0  0  0  0  0  0  0
   -0.5037    4.5379    8.7931 H   0  0  0  1  0  0  0  0  0  0  0  0
   -3.0646    0.8268    5.0553 O   0  0  0  1  0  0  0  0  0  0  0  0
   -2.0497   -1.2212    6.4965 C   0  0  0  1  0  0  0  0  0  0  0  0
   -3.1006   -1.1618    6.3042 H   0  0  0  1  0  0  0  0  0  0  0  0
   -1.7955   -0.5605    7.2988 H   0  0  0  1  0  0  0  0  0  0  0  0
    0.7545    3.5298   10.0144 N   0  0  0  1  0  0  0  0  0  0  0  0
    2.1865    2.2945   11.3429 N   0  0  0  1  0  0  0  0  0  0  0  0
    2.1544    3.0073   12.0147 H   0  0  0  1  0  0  0  0  0  0  0  0
    2.6962    1.4765   11.5205 H   0  0  0  1  0  0  0  0  0  0  0  0
   -3.6429    2.1556    5.8231 P   0  0  0  1  0  0  0  0  0  0  0  0
   -1.6881   -2.5789    6.8427 O   0  0  0  1  0  0  0  0  0  0  0  0
   -2.7284    3.3188    5.8547 O   0  0  0  1  0  0  0  0  0  0  0  0
   -3.7974    1.6297    7.3475 O   0  5  0  1  0  0  0  0  0  0  0  0
   -5.1562    2.5369    5.3886 O   0  5  0  1  0  0  0  0  0  0  0  0
   -2.4521   -3.4246    7.9387 P   0  0  0  1  0  0  0  0  0  0  0  0
   -2.1277   -2.6290    9.3139 O   0  0  0  1  0  0  0  0  0  0  0  0
   -1.7126   -4.7055    8.0216 O   0  0  0  0  0  0  0  0  0  0  0  0
   -3.9035   -3.4400    7.6777 O   0  0  0  1  0  0  0  0  0  0  0  0
   -1.6799   -3.3227   10.6814 S   0  0  0  1  0  0  0  0  0  0  0  0
   -1.9940   -2.3860   11.7415 O   0  0  0  1  0  0  0  0  0  0  0  0
   -2.9466   -2.3239   11.8424 H   0  0  0  1  0  0  0  0  0  0  0  0
   -2.4480   -4.5439   10.7917 O   0  0  0  1  0  0  0  0  0  0  0  0
   -0.2711   -3.5172   10.4679 O   0  0  0  1  0  0  0  0  0  0  0  0
  1  2  1  0  0  0  0
  1  4  1  0  0  0  0
  1  5  1  0  0  0  0
  2  3  1  0  0  0  0
  2  7  1  0  0  0  0
  2  9  1  0  0  0  0
  4 10  2  0  0  0  0
  4 11  1  0  0  0  0
  5  6  1  0  0  0  0
  5 12  2  0  0  0  0
  7  8  1  0  0  0  0
  7 13  1  0  0  0  0
  7 15  1  0  0  0  0
  9 17  1  0  0  0  0
 10 12  1  0  0  0  0
 10 19  1  0  0  0  0
 11 20  2  0  0  0  0
 13 14  1  0  0  0  0
 13 17  1  0  0  0  0
 13 22  1  0  0  0  0
 15 16  1  0  0  0  0
 17 18  1  0  0  0  0
 17 23  1  0  0  0  0
 19 26  2  0  0  0  0
 19 27  1  0  0  0  0
 20 21  1  0  0  0  0
 20 26  1  0  0  0  0
 22 30  1  0  0  0  0
 23 24  1  0  0  0  0
 23 25  1  0  0  0  0
 23 31  1  0  0  0  0
 27 28  1  0  0  0  0
 27 29  1  0  0  0  0
 30 32  2  0  0  0  0
 30 33  1  0  0  0  0
 30 34  1  0  0  0  0
 31 35  1  0  0  0  0
 35 36  1  0  0  0  0
 35 37  1  0  0  0  0
 35 38  2  0  0  0  0
 36 39  1  0  0  0  0
 39 40  1  0  0  0  0
 39 42  2  0  0  0  0
 39 43  2  0  0  0  0
 40 41  1  0  0  0  0
M  BCL ATM N_TrTrTrPi2 C_TeTeTeTe H_S C_TrTrTrPi C_TrTrTrPi H_S C_TeTeTeTe H_S O_Te2Te2TeTe C_TrTrTrPi N_Tr2TrTrPi N_Tr2TrTrPi C_TeTeTeTe H_S O_Te2Te2TeTe H_S C_TeTeTeTe H_S C_TrTrTrPi C_TrTrTrPi H_S O_Tr2TrTrPi2 C_TeTeTeTe H_S H_S N_Tr2TrTrPi N_TrTrTrPi2 H_S H_S P_TeTeTeTePi O_Tr2TrTrPi2 O_Tr2Tr2TrPi O_Te2Te2Te2Te O_Te2Te2Te2Te P_TeTeTeTePi O_Tr2TrTrPi2 O_Te2Te2TeTe O_Tr2Tr2TrPi S_TeTeTeTePiPi O_Te2Te2TeTe H_S O_Tr2Tr2TrPi O_Tr2Tr2TrPi
M  BCL BND NonConjugatedSingleBond AromaticSingleBond AromaticSingleBond NonConjugatedSingleBond NonConjugatedSingleBondInRing NonConjugatedSingleBondInRing AromaticDoubleBond AromaticSingleBond NonConjugatedSingleBond AromaticDoubleBond NonConjugatedSingleBond NonConjugatedSingleBondInRing NonConjugatedSingleBond NonConjugatedSingleBondInRing AromaticSingleBond AromaticSingleBond AromaticDoubleBond NonConjugatedSingleBond NonConjugatedSingleBondInRing NonConjugatedSingleBond NonConjugatedSingleBond NonConjugatedSingleBond NonConjugatedSingleBond AromaticDoubleBond ConjugatedSingleBond NonConjugatedSingleBond AromaticSingleBond ConjugatedSingleBond NonConjugatedSingleBond NonConjugatedSingleBond NonConjugatedSingleBond NonConjugatedSingleBond NonConjugatedSingleBond ConjugatedDoubleBond ConjugatedSingleBond ConjugatedSingleBond ConjugatedSingleBond ConjugatedSingleBond ConjugatedSingleBond ConjugatedDoubleBond ConjugatedSingleBond ConjugatedSingleBond ConjugatedDoubleBond ConjugatedDoubleBond NonConjugatedSingleBond
M  BCL CHI   2   R   7   R  13   S  17   S  35   R
M  BCL DBI - - - - - - - -
M  END
> <ConfClashScore>
0 

> <ConfOneFourInteractionScore>
-0.965664 

> <ConfScore>
-0.268107 

> <ConfScorePBest>
0.0114935 

> <ConfTolerance>
1.14854 

$$$$
ChEBI.****
  PyMOL2.5          3D                             0

 43 45  0  0  0  0  0  0  0  0999 V2000
    1.0890    0.7937    7.1093 N   0  0  0  1  0  0  0  0  0  0  0  0
    0.4278    0.6105    5.8014 C   0  0  0  1  0  0  0  0  0  0  0  0
    0.8520    1.2868    5.0889 H   0  0  0  1  0  0  0  0  0  0  0  0
    0.8586    1.8307    7.9761 C   0  0  0  1  0  0  0  0  0  0  0  0
    1.9433   -0.0452    7.7568 C   0  0  0  1  0  0  0  0  0  0  0  0
    2.2981   -0.9231    7.3267 H   0  0  0  1  0  0  0  0  0  0  0  0
   -1.0874    0.8283    5.9227 C   0  0  0  1  0  0  0  0  0  0  0  0
   -1.4510    0.4906    6.8707 H   0  0  0  1  0  0  0  0  0  0  0  0
    0.5525   -0.7151    5.3632 O   0  0  0  1  0  0  0  0  0  0  0  0
    1.6064    1.5334    9.1234 C   0  0  0  1  0  0  0  0  0  0  0  0
    0.0783    2.8957    7.7872 N   0  0  0  1  0  0  0  0  0  0  0  0
    2.2836    0.3352    8.9582 N   0  0  0  1  0  0  0  0  0  0  0  0
   -1.6336   -0.0145    4.8002 C   0  0  0  1  0  0  0  0  0  0  0  0
   -1.6280    0.5260    3.8767 H   0  0  0  1  0  0  0  0  0  0  0  0
   -1.4258    2.2045    5.7450 O   0  0  0  1  0  0  0  0  0  0  0  0
   -0.8313    2.6004    5.1035 H   0  0  0  1  0  0  0  0  0  0  0  0
   -0.6635   -1.1986    4.7495 C   0  0  0  1  0  0  0  0  0  0  0  0
   -0.4820   -1.4923    3.7367 H   0  0  0  1  0  0  0  0  0  0  0  0
    1.5092    2.4584   10.1587 C   0  0  0  1  0  0  0  0  0  0  0  0
    0.0858    3.6946    8.8472 C   0  0  0  1  0  0  0  0  0  0  0  0
   -0.4993    4.5508    8.7693 H   0  0  0  1  0  0  0  0  0  0  0  0
   -2.9796   -0.4584    5.0919 O   0  0  0  1  0  0  0  0  0  0  0  0
   -1.2153   -2.3664    5.5196 C   0  0  0  1  0  0  0  0  0  0  0  0
   -0.6092   -3.2347    5.3661 H   0  0  0  1  0  0  0  0  0  0  0  0
   -2.2198   -2.5735    5.2146 H   0  0  0  1  0  0  0  0  0  0  0  0
    0.7466    3.5464   10.0063 N   0  0  0  1  0  0  0  0  0  0  0  0
    2.1846    2.2666   11.3287 N   0  0  0  1  0  0  0  0  0  0  0  0
    2.6661    1.4274   11.4846 H   0  0  0  1  0  0  0  0  0  0  0  0
    2.1881    2.9680   12.0131 H   0  0  0  1  0  0  0  0  0  0  0  0
   -4.2775    0.4253    4.6184 P   0  0  0  1  0  0  0  0  0  0  0  0
   -1.1824   -1.9699    6.9000 O   0  0  0  1  0  0  0  0  0  0  0  0
   -3.8622    1.2625    3.4709 O   0  0  0  1  0  0  0  0  0  0  0  0
   -4.7837    1.2997    5.8847 O   0  5  0  1  0  0  0  0  0  0  0  0
   -5.4310   -0.6789    4.3452 O   0  5  0  1  0  0  0  0  0  0  0  0
   -1.6668   -2.8688    8.1324 P   0  0  0  1  0  0  0  0  0  0  0  0
   -3.3061   -3.0521    7.8354 O   0  0  0  1  0  0  0  0  0  0  0  0
   -1.5054   -2.1008    9.3911 O   0  0  0  0  0  0  0  0  0  0  0  0
   -1.0455   -4.2008    7.9801 O   0  0  0  1  0  0  0  0  0  0  0  0
   -4.4864   -2.2520    7.1155 S   0  0  0  1  0  0  0  0  0  0  0  0
   -4.4366   -0.8992    7.6237 O   0  0  0  1  0  0  0  0  0  0  0  0
   -3.8910   -0.3599    7.0466 H   0  0  0  1  0  0  0  0  0  0  0  0
   -4.2149   -2.3078    5.7071 O   0  0  0  1  0  0  0  0  0  0  0  0
   -5.6442   -2.9930    7.5325 O   0  0  0  1  0  0  0  0  0  0  0  0
  1  2  1  0  0  0  0
  1  4  1  0  0  0  0
  1  5  1  0  0  0  0
  2  3  1  0  0  0  0
  2  7  1  0  0  0  0
  2  9  1  0  0  0  0
  4 10  2  0  0  0  0
  4 11  1  0  0  0  0
  5  6  1  0  0  0  0
  5 12  2  0  0  0  0
  7  8  1  0  0  0  0
  7 13  1  0  0  0  0
  7 15  1  0  0  0  0
  9 17  1  0  0  0  0
 10 12  1  0  0  0  0
 10 19  1  0  0  0  0
 11 20  2  0  0  0  0
 13 14  1  0  0  0  0
 13 17  1  0  0  0  0
 13 22  1  0  0  0  0
 15 16  1  0  0  0  0
 17 18  1  0  0  0  0
 17 23  1  0  0  0  0
 19 26  2  0  0  0  0
 19 27  1  0  0  0  0
 20 21  1  0  0  0  0
 20 26  1  0  0  0  0
 22 30  1  0  0  0  0
 23 24  1  0  0  0  0
 23 25  1  0  0  0  0
 23 31  1  0  0  0  0
 27 28  1  0  0  0  0
 27 29  1  0  0  0  0
 30 32  2  0  0  0  0
 30 33  1  0  0  0  0
 30 34  1  0  0  0  0
 31 35  1  0  0  0  0
 35 36  1  0  0  0  0
 35 37  1  0  0  0  0
 35 38  2  0  0  0  0
 36 39  1  0  0  0  0
 39 40  1  0  0  0  0
 39 42  2  0  0  0  0
 39 43  2  0  0  0  0
 40 41  1  0  0  0  0
M  BCL ATM N_TrTrTrPi2 C_TeTeTeTe H_S C_TrTrTrPi C_TrTrTrPi H_S C_TeTeTeTe H_S O_Te2Te2TeTe C_TrTrTrPi N_Tr2TrTrPi N_Tr2TrTrPi C_TeTeTeTe H_S O_Te2Te2TeTe H_S C_TeTeTeTe H_S C_TrTrTrPi C_TrTrTrPi H_S O_Tr2TrTrPi2 C_TeTeTeTe H_S H_S N_Tr2TrTrPi N_TrTrTrPi2 H_S H_S P_TeTeTeTePi O_Tr2TrTrPi2 O_Tr2Tr2TrPi O_Te2Te2Te2Te O_Te2Te2Te2Te P_TeTeTeTePi O_Tr2TrTrPi2 O_Te2Te2TeTe O_Tr2Tr2TrPi S_TeTeTeTePiPi O_Te2Te2TeTe H_S O_Tr2Tr2TrPi O_Tr2Tr2TrPi
M  BCL BND NonConjugatedSingleBond AromaticSingleBond AromaticSingleBond NonConjugatedSingleBond NonConjugatedSingleBondInRing NonConjugatedSingleBondInRing AromaticDoubleBond AromaticSingleBond NonConjugatedSingleBond AromaticDoubleBond NonConjugatedSingleBond NonConjugatedSingleBondInRing NonConjugatedSingleBond NonConjugatedSingleBondInRing AromaticSingleBond AromaticSingleBond AromaticDoubleBond NonConjugatedSingleBond NonConjugatedSingleBondInRing NonConjugatedSingleBond NonConjugatedSingleBond NonConjugatedSingleBond NonConjugatedSingleBond AromaticDoubleBond ConjugatedSingleBond NonConjugatedSingleBond AromaticSingleBond ConjugatedSingleBond NonConjugatedSingleBond NonConjugatedSingleBond NonConjugatedSingleBond NonConjugatedSingleBond NonConjugatedSingleBond ConjugatedDoubleBond ConjugatedSingleBond ConjugatedSingleBond ConjugatedSingleBond ConjugatedSingleBond ConjugatedSingleBond ConjugatedDoubleBond ConjugatedSingleBond ConjugatedSingleBond ConjugatedDoubleBond ConjugatedDoubleBond NonConjugatedSingleBond
M  BCL CHI   2   R   7   R  13   S  17   S  35   R
M  BCL DBI - - - - - - - -
M  END
> <ConfClashScore>
0 

> <ConfOneFourInteractionScore>
-0.989601 

> <ConfScore>
-0.267438 

> <ConfScorePBest>
0.0113905 

> <ConfTolerance>
1.07841 

$$$$
ChEBI.****
  PyMOL2.5          3D                             0

 43 45  0  0  0  0  0  0  0  0999 V2000
    1.0566    0.7842    7.0930 N   0  0  0  1  0  0  0  0  0  0  0  0
    0.4750    0.6297    5.7452 C   0  0  0  1  0  0  0  0  0  0  0  0
   -0.4507    1.1637    5.6923 H   0  0  0  1  0  0  0  0  0  0  0  0
    0.8478    1.8167    7.9705 C   0  0  0  1  0  0  0  0  0  0  0  0
    1.9110   -0.0679    7.7229 C   0  0  0  1  0  0  0  0  0  0  0  0
    2.2515   -0.9459    7.2816 H   0  0  0  1  0  0  0  0  0  0  0  0
    0.2671   -0.8541    5.4093 C   0  0  0  1  0  0  0  0  0  0  0  0
    1.0363   -1.4591    5.8420 H   0  0  0  1  0  0  0  0  0  0  0  0
    1.3673    1.0845    4.7643 O   0  0  0  1  0  0  0  0  0  0  0  0
    1.6074    1.5033    9.1056 C   0  0  0  1  0  0  0  0  0  0  0  0
    0.0756    2.8907    7.7999 N   0  0  0  1  0  0  0  0  0  0  0  0
    2.2707    0.2999    8.9225 N   0  0  0  1  0  0  0  0  0  0  0  0
    0.3474   -0.8672    3.9053 C   0  0  0  1  0  0  0  0  0  0  0  0
   -0.6009   -0.6335    3.4683 H   0  0  0  1  0  0  0  0  0  0  0  0
   -1.0093   -1.3105    5.8609 O   0  0  0  1  0  0  0  0  0  0  0  0
   -0.8928   -2.0709    6.4353 H   0  0  0  1  0  0  0  0  0  0  0  0
    1.3765    0.2257    3.6017 C   0  0  0  1  0  0  0  0  0  0  0  0
    1.0948    0.7744    2.7273 H   0  0  0  1  0  0  0  0  0  0  0  0
    1.5329    2.4213   10.1491 C   0  0  0  1  0  0  0  0  0  0  0  0
    0.1047    3.6813    8.8658 C   0  0  0  1  0  0  0  0  0  0  0  0
   -0.4728    4.5438    8.8020 H   0  0  0  1  0  0  0  0  0  0  0  0
    0.8000   -2.1577    3.4194 O   0  0  0  1  0  0  0  0  0  0  0  0
    2.7309   -0.3706    3.4012 C   0  0  0  1  0  0  0  0  0  0  0  0
    3.4624    0.4059    3.3190 H   0  0  0  1  0  0  0  0  0  0  0  0
    2.7393   -0.9649    2.5115 H   0  0  0  1  0  0  0  0  0  0  0  0
    0.7791    3.5178   10.0149 N   0  0  0  1  0  0  0  0  0  0  0  0
    2.1883    2.3145   11.3710 N   0  0  0  1  0  0  0  0  0  0  0  0
    2.7593    1.5395   11.5546 H   0  0  0  1  0  0  0  0  0  0  0  0
    2.0791    3.0142   12.0484 H   0  0  0  1  0  0  0  0  0  0  0  0
    0.1971   -2.7925    2.0326 P   0  0  0  1  0  0  0  0  0  0  0  0
    3.0201   -1.2004    4.5508 O   0  0  0  1  0  0  0  0  0  0  0  0
    0.4116   -1.8872    0.8816 O   0  0  0  1  0  0  0  0  0  0  0  0
   -1.3647   -2.9807    2.4197 O   0  5  0  1  0  0  0  0  0  0  0  0
    0.8270   -4.2803    1.9136 O   0  5  0  1  0  0  0  0  0  0  0  0
    4.2343   -2.1740    4.5468 P   0  0  0  1  0  0  0  0  0  0  0  0
    4.1939   -3.0820    5.9550 O   0  0  0  1  0  0  0  0  0  0  0  0
    5.5336   -1.3771    4.6349 O   0  0  0  0  0  0  0  0  0  0  0  0
    4.1324   -3.0155    3.3201 O   0  0  0  1  0  0  0  0  0  0  0  0
    3.2305   -4.0947    6.6729 S   0  0  0  1  0  0  0  0  0  0  0  0
    4.1955   -4.9037    7.3593 O   0  0  0  1  0  0  0  0  0  0  0  0
    3.7442   -5.4954    7.9658 H   0  0  0  1  0  0  0  0  0  0  0  0
    2.3885   -3.3975    7.5483 O   0  0  0  1  0  0  0  0  0  0  0  0
    2.5381   -4.7853    5.6679 O   0  0  0  1  0  0  0  0  0  0  0  0
  1  2  1  0  0  0  0
  1  4  1  0  0  0  0
  1  5  1  0  0  0  0
  2  3  1  0  0  0  0
  2  7  1  0  0  0  0
  2  9  1  0  0  0  0
  4 10  2  0  0  0  0
  4 11  1  0  0  0  0
  5  6  1  0  0  0  0
  5 12  2  0  0  0  0
  7  8  1  0  0  0  0
  7 13  1  0  0  0  0
  7 15  1  0  0  0  0
  9 17  1  0  0  0  0
 10 12  1  0  0  0  0
 10 19  1  0  0  0  0
 11 20  2  0  0  0  0
 13 14  1  0  0  0  0
 13 17  1  0  0  0  0
 13 22  1  0  0  0  0
 15 16  1  0  0  0  0
 17 18  1  0  0  0  0
 17 23  1  0  0  0  0
 19 26  2  0  0  0  0
 19 27  1  0  0  0  0
 20 21  1  0  0  0  0
 20 26  1  0  0  0  0
 22 30  1  0  0  0  0
 23 24  1  0  0  0  0
 23 25  1  0  0  0  0
 23 31  1  0  0  0  0
 27 28  1  0  0  0  0
 27 29  1  0  0  0  0
 30 32  2  0  0  0  0
 30 33  1  0  0  0  0
 30 34  1  0  0  0  0
 31 35  1  0  0  0  0
 35 36  1  0  0  0  0
 35 37  1  0  0  0  0
 35 38  2  0  0  0  0
 36 39  1  0  0  0  0
 39 40  1  0  0  0  0
 39 42  2  0  0  0  0
 39 43  2  0  0  0  0
 40 41  1  0  0  0  0
M  BCL ATM N_TrTrTrPi2 C_TeTeTeTe H_S C_TrTrTrPi C_TrTrTrPi H_S C_TeTeTeTe H_S O_Te2Te2TeTe C_TrTrTrPi N_Tr2TrTrPi N_Tr2TrTrPi C_TeTeTeTe H_S O_Te2Te2TeTe H_S C_TeTeTeTe H_S C_TrTrTrPi C_TrTrTrPi H_S O_Tr2TrTrPi2 C_TeTeTeTe H_S H_S N_Tr2TrTrPi N_TrTrTrPi2 H_S H_S P_TeTeTeTePi O_Tr2TrTrPi2 O_Tr2Tr2TrPi O_Te2Te2Te2Te O_Te2Te2Te2Te P_TeTeTeTePi O_Tr2TrTrPi2 O_Te2Te2TeTe O_Tr2Tr2TrPi S_TeTeTeTePiPi O_Te2Te2TeTe H_S O_Tr2Tr2TrPi O_Tr2Tr2TrPi
M  BCL BND NonConjugatedSingleBond AromaticSingleBond AromaticSingleBond NonConjugatedSingleBond NonConjugatedSingleBondInRing NonConjugatedSingleBondInRing AromaticDoubleBond AromaticSingleBond NonConjugatedSingleBond AromaticDoubleBond NonConjugatedSingleBond NonConjugatedSingleBondInRing NonConjugatedSingleBond NonConjugatedSingleBondInRing AromaticSingleBond AromaticSingleBond AromaticDoubleBond NonConjugatedSingleBond NonConjugatedSingleBondInRing NonConjugatedSingleBond NonConjugatedSingleBond NonConjugatedSingleBond NonConjugatedSingleBond AromaticDoubleBond ConjugatedSingleBond NonConjugatedSingleBond AromaticSingleBond ConjugatedSingleBond NonConjugatedSingleBond NonConjugatedSingleBond NonConjugatedSingleBond NonConjugatedSingleBond NonConjugatedSingleBond ConjugatedDoubleBond ConjugatedSingleBond ConjugatedSingleBond ConjugatedSingleBond ConjugatedSingleBond ConjugatedSingleBond ConjugatedDoubleBond ConjugatedSingleBond ConjugatedSingleBond ConjugatedDoubleBond ConjugatedDoubleBond NonConjugatedSingleBond
M  BCL CHI   2   R   7   R  13   S  17   S  35   R
M  BCL DBI - - - - - - - -
M  END
> <ConfClashScore>
0 

> <ConfOneFourInteractionScore>
-0.982182 

> <ConfScore>
-0.265133 

> <ConfScorePBest>
0.0112875 

> <ConfTolerance>
1.10605 

$$$$
ChEBI.****
  PyMOL2.5          3D                             0

 43 45  0  0  0  0  0  0  0  0999 V2000
    1.0430    0.7759    7.0973 N   0  0  0  1  0  0  0  0  0  0  0  0
    0.5418    0.6736    5.7431 C   0  0  0  1  0  0  0  0  0  0  0  0
    0.7772    1.5689    5.2066 H   0  0  0  1  0  0  0  0  0  0  0  0
    0.8362    1.8096    7.9740 C   0  0  0  1  0  0  0  0  0  0  0  0
    1.9037   -0.0723    7.7239 C   0  0  0  1  0  0  0  0  0  0  0  0
    2.2443   -0.9502    7.2823 H   0  0  0  1  0  0  0  0  0  0  0  0
   -0.9728    0.4208    5.7414 C   0  0  0  1  0  0  0  0  0  0  0  0
   -1.2636   -0.1858    6.5735 H   0  0  0  1  0  0  0  0  0  0  0  0
    1.0802   -0.4482    5.0977 O   0  0  0  1  0  0  0  0  0  0  0  0
    1.6035    1.5008    9.1052 C   0  0  0  1  0  0  0  0  0  0  0  0
    0.0598    2.8809    7.8057 N   0  0  0  1  0  0  0  0  0  0  0  0
    2.2693    0.2990    8.9206 N   0  0  0  1  0  0  0  0  0  0  0  0
   -1.1854   -0.3057    4.4393 C   0  0  0  1  0  0  0  0  0  0  0  0
   -1.2978    0.3839    3.6289 H   0  0  0  1  0  0  0  0  0  0  0  0
   -1.7003    1.6502    5.7700 O   0  0  0  1  0  0  0  0  0  0  0  0
   -2.6418    1.4663    5.7335 H   0  0  0  1  0  0  0  0  0  0  0  0
    0.0969   -1.1291    4.2861 C   0  0  0  1  0  0  0  0  0  0  0  0
    0.4072   -1.1541    3.2624 H   0  0  0  1  0  0  0  0  0  0  0  0
    1.5323    2.4206   10.1472 C   0  0  0  1  0  0  0  0  0  0  0  0
    0.0929    3.6737    8.8698 C   0  0  0  1  0  0  0  0  0  0  0  0
   -0.4877    4.5343    8.8077 H   0  0  0  1  0  0  0  0  0  0  0  0
   -2.3512   -1.1663    4.5079 O   0  0  0  1  0  0  0  0  0  0  0  0
   -0.1136   -2.5235    4.7774 C   0  0  0  1  0  0  0  0  0  0  0  0
   -0.9603   -2.9581    4.2885 H   0  0  0  1  0  0  0  0  0  0  0  0
   -0.2764   -2.5165    5.8349 H   0  0  0  1  0  0  0  0  0  0  0  0
    0.7744    3.5146   10.0153 N   0  0  0  1  0  0  0  0  0  0  0  0
    2.1952    2.3182   11.3655 N   0  0  0  1  0  0  0  0  0  0  0  0
    2.6988    1.5061   11.5826 H   0  0  0  1  0  0  0  0  0  0  0  0
    2.1587    3.0583   12.0068 H   0  0  0  1  0  0  0  0  0  0  0  0
   -3.0571   -1.7363    3.1418 P   0  0  0  1  0  0  0  0  0  0  0  0
    1.0782   -3.2832    4.4672 O   0  0  0  1  0  0  0  0  0  0  0  0
   -3.0293   -0.8383    1.9656 O   0  0  0  1  0  0  0  0  0  0  0  0
   -4.6213   -2.0616    3.4095 O   0  5  0  1  0  0  0  0  0  0  0  0
   -2.3218   -3.1460    2.8310 O   0  5  0  1  0  0  0  0  0  0  0  0
    1.0236   -4.8759    4.3339 P   0  0  0  1  0  0  0  0  0  0  0  0
    0.4704   -5.2374    5.8148 O   0  0  0  1  0  0  0  0  0  0  0  0
    2.3968   -5.4729    4.2638 O   0  0  0  0  0  0  0  0  0  0  0  0
    0.0793   -5.2892    3.2575 O   0  0  0  1  0  0  0  0  0  0  0  0
    0.1136   -6.6682    6.2994 S   0  0  0  1  0  0  0  0  0  0  0  0
    1.4424   -7.2707    6.5279 O   0  0  0  1  0  0  0  0  0  0  0  0
    1.7162   -7.1089    7.4337 H   0  0  0  1  0  0  0  0  0  0  0  0
   -0.6509   -6.5874    7.5427 O   0  0  0  1  0  0  0  0  0  0  0  0
   -0.6301   -7.3271    5.2530 O   0  0  0  1  0  0  0  0  0  0  0  0
  1  2  1  0  0  0  0
  1  4  1  0  0  0  0
  1  5  1  0  0  0  0
  2  3  1  0  0  0  0
  2  7  1  0  0  0  0
  2  9  1  0  0  0  0
  4 10  2  0  0  0  0
  4 11  1  0  0  0  0
  5  6  1  0  0  0  0
  5 12  2  0  0  0  0
  7  8  1  0  0  0  0
  7 13  1  0  0  0  0
  7 15  1  0  0  0  0
  9 17  1  0  0  0  0
 10 12  1  0  0  0  0
 10 19  1  0  0  0  0
 11 20  2  0  0  0  0
 13 14  1  0  0  0  0
 13 17  1  0  0  0  0
 13 22  1  0  0  0  0
 15 16  1  0  0  0  0
 17 18  1  0  0  0  0
 17 23  1  0  0  0  0
 19 26  2  0  0  0  0
 19 27  1  0  0  0  0
 20 21  1  0  0  0  0
 20 26  1  0  0  0  0
 22 30  1  0  0  0  0
 23 24  1  0  0  0  0
 23 25  1  0  0  0  0
 23 31  1  0  0  0  0
 27 28  1  0  0  0  0
 27 29  1  0  0  0  0
 30 32  2  0  0  0  0
 30 33  1  0  0  0  0
 30 34  1  0  0  0  0
 31 35  1  0  0  0  0
 35 36  1  0  0  0  0
 35 37  1  0  0  0  0
 35 38  2  0  0  0  0
 36 39  1  0  0  0  0
 39 40  1  0  0  0  0
 39 42  2  0  0  0  0
 39 43  2  0  0  0  0
 40 41  1  0  0  0  0
M  BCL ATM N_TrTrTrPi2 C_TeTeTeTe H_S C_TrTrTrPi C_TrTrTrPi H_S C_TeTeTeTe H_S O_Te2Te2TeTe C_TrTrTrPi N_Tr2TrTrPi N_Tr2TrTrPi C_TeTeTeTe H_S O_Te2Te2TeTe H_S C_TeTeTeTe H_S C_TrTrTrPi C_TrTrTrPi H_S O_Tr2TrTrPi2 C_TeTeTeTe H_S H_S N_Tr2TrTrPi N_TrTrTrPi2 H_S H_S P_TeTeTeTePi O_Tr2TrTrPi2 O_Tr2Tr2TrPi O_Te2Te2Te2Te O_Te2Te2Te2Te P_TeTeTeTePi O_Tr2TrTrPi2 O_Te2Te2TeTe O_Tr2Tr2TrPi S_TeTeTeTePiPi O_Te2Te2TeTe H_S O_Tr2Tr2TrPi O_Tr2Tr2TrPi
M  BCL BND NonConjugatedSingleBond AromaticSingleBond AromaticSingleBond NonConjugatedSingleBond NonConjugatedSingleBondInRing NonConjugatedSingleBondInRing AromaticDoubleBond AromaticSingleBond NonConjugatedSingleBond AromaticDoubleBond NonConjugatedSingleBond NonConjugatedSingleBondInRing NonConjugatedSingleBond NonConjugatedSingleBondInRing AromaticSingleBond AromaticSingleBond AromaticDoubleBond NonConjugatedSingleBond NonConjugatedSingleBondInRing NonConjugatedSingleBond NonConjugatedSingleBond NonConjugatedSingleBond NonConjugatedSingleBond AromaticDoubleBond ConjugatedSingleBond NonConjugatedSingleBond AromaticSingleBond ConjugatedSingleBond NonConjugatedSingleBond NonConjugatedSingleBond NonConjugatedSingleBond NonConjugatedSingleBond NonConjugatedSingleBond ConjugatedDoubleBond ConjugatedSingleBond ConjugatedSingleBond ConjugatedSingleBond ConjugatedSingleBond ConjugatedSingleBond ConjugatedDoubleBond ConjugatedSingleBond ConjugatedSingleBond ConjugatedDoubleBond ConjugatedDoubleBond NonConjugatedSingleBond
M  BCL CHI   2   R   7   R  13   S  17   S  35   R
M  BCL DBI - - - - - - - -
M  END
> <ConfClashScore>
0 

> <ConfOneFourInteractionScore>
-0.981627 

> <ConfScore>
-0.264458 

> <ConfScorePBest>
0.0111845 

> <ConfTolerance>
1.04942 

$$$$
ChEBI.****
  PyMOL2.5          3D                             0

 43 45  0  0  0  0  0  0  0  0999 V2000
    1.0681    0.7863    7.1051 N   0  0  0  1  0  0  0  0  0  0  0  0
    0.4958    0.6213    5.7638 C   0  0  0  1  0  0  0  0  0  0  0  0
    0.8923   -0.2643    5.3128 H   0  0  0  1  0  0  0  0  0  0  0  0
    0.8471    1.8210    7.9771 C   0  0  0  1  0  0  0  0  0  0  0  0
    1.9279   -0.0552    7.7419 C   0  0  0  1  0  0  0  0  0  0  0  0
    2.2777   -0.9322    7.3058 H   0  0  0  1  0  0  0  0  0  0  0  0
    0.7868    1.8522    4.8931 C   0  0  0  1  0  0  0  0  0  0  0  0
    0.7849    2.7479    5.4785 H   0  0  0  1  0  0  0  0  0  0  0  0
   -0.9035    0.5639    5.8246 O   0  0  0  1  0  0  0  0  0  0  0  0
    1.6057    1.5196    9.1162 C   0  0  0  1  0  0  0  0  0  0  0  0
    0.0660    2.8873    7.7988 N   0  0  0  1  0  0  0  0  0  0  0  0
    2.2802    0.3214    8.9410 N   0  0  0  1  0  0  0  0  0  0  0  0
   -0.3566    1.8417    3.9128 C   0  0  0  1  0  0  0  0  0  0  0  0
   -0.1440    1.2017    3.0821 H   0  0  0  1  0  0  0  0  0  0  0  0
    2.0413    1.7236    4.2225 O   0  0  0  1  0  0  0  0  0  0  0  0
    2.7535    1.7601    4.8652 H   0  0  0  1  0  0  0  0  0  0  0  0
   -1.5223    1.2958    4.7427 C   0  0  0  1  0  0  0  0  0  0  0  0
   -2.1330    0.6464    4.1509 H   0  0  0  1  0  0  0  0  0  0  0  0
    1.5195    2.4417   10.1551 C   0  0  0  1  0  0  0  0  0  0  0  0
    0.0845    3.6830    8.8611 C   0  0  0  1  0  0  0  0  0  0  0  0
   -0.5005    4.5400    8.7913 H   0  0  0  1  0  0  0  0  0  0  0  0
   -0.6424    3.1821    3.4314 O   0  0  0  1  0  0  0  0  0  0  0  0
   -2.3455    2.4014    5.2695 C   0  0  0  1  0  0  0  0  0  0  0  0
   -3.0432    2.0129    5.9817 H   0  0  0  1  0  0  0  0  0  0  0  0
   -2.8773    2.8604    4.4624 H   0  0  0  1  0  0  0  0  0  0  0  0
    0.7564    3.5309   10.0132 N   0  0  0  1  0  0  0  0  0  0  0  0
    2.1868    2.2945   11.3424 N   0  0  0  1  0  0  0  0  0  0  0  0
    2.1817    3.0205   12.0007 H   0  0  0  1  0  0  0  0  0  0  0  0
    2.6692    1.4632   11.5335 H   0  0  0  1  0  0  0  0  0  0  0  0
    0.4915    4.3641    3.5124 P   0  0  0  1  0  0  0  0  0  0  0  0
   -1.5074    3.3937    5.9146 O   0  0  0  1  0  0  0  0  0  0  0  0
    1.2301    4.5826    4.7762 O   0  0  0  1  0  0  0  0  0  0  0  0
   -0.2390    5.7844    3.2410 O   0  5  0  1  0  0  0  0  0  0  0  0
    1.4863    4.1271    2.2560 O   0  5  0  1  0  0  0  0  0  0  0  0
   -2.1242    4.7239    6.4817 P   0  0  0  1  0  0  0  0  0  0  0  0
   -2.6523    5.4862    5.1514 O   0  0  0  1  0  0  0  0  0  0  0  0
   -0.9767    5.5152    7.0887 O   0  0  0  0  0  0  0  0  0  0  0  0
   -3.2881    4.4462    7.3769 O   0  0  0  1  0  0  0  0  0  0  0  0
   -3.9284    6.5145    5.1100 S   0  0  0  1  0  0  0  0  0  0  0  0
   -4.9709    5.5389    4.9359 O   0  0  0  1  0  0  0  0  0  0  0  0
   -4.9695    4.9322    5.6798 H   0  0  0  1  0  0  0  0  0  0  0  0
   -3.9726    7.2065    6.3577 O   0  0  0  1  0  0  0  0  0  0  0  0
   -3.7412    7.3441    3.9676 O   0  0  0  1  0  0  0  0  0  0  0  0
  1  2  1  0  0  0  0
  1  4  1  0  0  0  0
  1  5  1  0  0  0  0
  2  3  1  0  0  0  0
  2  7  1  0  0  0  0
  2  9  1  0  0  0  0
  4 10  2  0  0  0  0
  4 11  1  0  0  0  0
  5  6  1  0  0  0  0
  5 12  2  0  0  0  0
  7  8  1  0  0  0  0
  7 13  1  0  0  0  0
  7 15  1  0  0  0  0
  9 17  1  0  0  0  0
 10 12  1  0  0  0  0
 10 19  1  0  0  0  0
 11 20  2  0  0  0  0
 13 14  1  0  0  0  0
 13 17  1  0  0  0  0
 13 22  1  0  0  0  0
 15 16  1  0  0  0  0
 17 18  1  0  0  0  0
 17 23  1  0  0  0  0
 19 26  2  0  0  0  0
 19 27  1  0  0  0  0
 20 21  1  0  0  0  0
 20 26  1  0  0  0  0
 22 30  1  0  0  0  0
 23 24  1  0  0  0  0
 23 25  1  0  0  0  0
 23 31  1  0  0  0  0
 27 28  1  0  0  0  0
 27 29  1  0  0  0  0
 30 32  2  0  0  0  0
 30 33  1  0  0  0  0
 30 34  1  0  0  0  0
 31 35  1  0  0  0  0
 35 36  1  0  0  0  0
 35 37  1  0  0  0  0
 35 38  2  0  0  0  0
 36 39  1  0  0  0  0
 39 40  1  0  0  0  0
 39 42  2  0  0  0  0
 39 43  2  0  0  0  0
 40 41  1  0  0  0  0
M  BCL ATM N_TrTrTrPi2 C_TeTeTeTe H_S C_TrTrTrPi C_TrTrTrPi H_S C_TeTeTeTe H_S O_Te2Te2TeTe C_TrTrTrPi N_Tr2TrTrPi N_Tr2TrTrPi C_TeTeTeTe H_S O_Te2Te2TeTe H_S C_TeTeTeTe H_S C_TrTrTrPi C_TrTrTrPi H_S O_Tr2TrTrPi2 C_TeTeTeTe H_S H_S N_Tr2TrTrPi N_TrTrTrPi2 H_S H_S P_TeTeTeTePi O_Tr2TrTrPi2 O_Tr2Tr2TrPi O_Te2Te2Te2Te O_Te2Te2Te2Te P_TeTeTeTePi O_Tr2TrTrPi2 O_Te2Te2TeTe O_Tr2Tr2TrPi S_TeTeTeTePiPi O_Te2Te2TeTe H_S O_Tr2Tr2TrPi O_Tr2Tr2TrPi
M  BCL BND NonConjugatedSingleBond AromaticSingleBond AromaticSingleBond NonConjugatedSingleBond NonConjugatedSingleBondInRing NonConjugatedSingleBondInRing AromaticDoubleBond AromaticSingleBond NonConjugatedSingleBond AromaticDoubleBond NonConjugatedSingleBond NonConjugatedSingleBondInRing NonConjugatedSingleBond NonConjugatedSingleBondInRing AromaticSingleBond AromaticSingleBond AromaticDoubleBond NonConjugatedSingleBond NonConjugatedSingleBondInRing NonConjugatedSingleBond NonConjugatedSingleBond NonConjugatedSingleBond NonConjugatedSingleBond AromaticDoubleBond ConjugatedSingleBond NonConjugatedSingleBond AromaticSingleBond ConjugatedSingleBond NonConjugatedSingleBond NonConjugatedSingleBond NonConjugatedSingleBond NonConjugatedSingleBond NonConjugatedSingleBond ConjugatedDoubleBond ConjugatedSingleBond ConjugatedSingleBond ConjugatedSingleBond ConjugatedSingleBond ConjugatedSingleBond ConjugatedDoubleBond ConjugatedSingleBond ConjugatedSingleBond ConjugatedDoubleBond ConjugatedDoubleBond NonConjugatedSingleBond
M  BCL CHI   2   R   7   R  13   S  17   S  35   R
M  BCL DBI - - - - - - - -
M  END
> <ConfClashScore>
0 

> <ConfOneFourInteractionScore>
-0.97331 

> <ConfScore>
-0.263718 

> <ConfScorePBest>
0.0110815 

> <ConfTolerance>
1.22138 

$$$$
ChEBI.****
  PyMOL2.5          3D                             0

 43 45  0  0  0  0  0  0  0  0999 V2000
    1.0707    0.7774    7.0923 N   0  0  0  1  0  0  0  0  0  0  0  0
    0.4673    0.6681    5.7609 C   0  0  0  1  0  0  0  0  0  0  0  0
   -0.5973    0.7350    5.8446 H   0  0  0  1  0  0  0  0  0  0  0  0
    0.8508    1.8083    7.9690 C   0  0  0  1  0  0  0  0  0  0  0  0
    1.9328   -0.0659    7.7234 C   0  0  0  1  0  0  0  0  0  0  0  0
    2.2824   -0.9408    7.2829 H   0  0  0  1  0  0  0  0  0  0  0  0
    0.8689   -0.6598    5.0995 C   0  0  0  1  0  0  0  0  0  0  0  0
    0.9960   -1.4318    5.8294 H   0  0  0  1  0  0  0  0  0  0  0  0
    0.9534    1.6763    4.9224 O   0  0  0  1  0  0  0  0  0  0  0  0
    1.6125    1.5030    9.1050 C   0  0  0  1  0  0  0  0  0  0  0  0
    0.0683    2.8746    7.7970 N   0  0  0  1  0  0  0  0  0  0  0  0
    2.2877    0.3061    8.9232 N   0  0  0  1  0  0  0  0  0  0  0  0
    2.1889   -0.3126    4.4338 C   0  0  0  1  0  0  0  0  0  0  0  0
    2.3427   -0.9007    3.5532 H   0  0  0  1  0  0  0  0  0  0  0  0
   -0.1022   -1.0700    4.1357 O   0  0  0  1  0  0  0  0  0  0  0  0
    0.3334   -1.5446    3.4239 H   0  0  0  1  0  0  0  0  0  0  0  0
    2.0114    1.1848    4.0805 C   0  0  0  1  0  0  0  0  0  0  0  0
    1.7450    1.2929    3.0498 H   0  0  0  1  0  0  0  0  0  0  0  0
    1.5279    2.4207   10.1479 C   0  0  0  1  0  0  0  0  0  0  0  0
    0.0887    3.6660    8.8625 C   0  0  0  1  0  0  0  0  0  0  0  0
   -0.4973    4.5227    8.7977 H   0  0  0  1  0  0  0  0  0  0  0  0
    3.2955   -0.5051    5.3414 O   0  0  0  1  0  0  0  0  0  0  0  0
    3.2845    1.9378    4.3515 C   0  0  0  1  0  0  0  0  0  0  0  0
    3.1840    2.9605    4.0534 H   0  0  0  1  0  0  0  0  0  0  0  0
    4.1018    1.4909    3.8250 H   0  0  0  1  0  0  0  0  0  0  0  0
    0.7635    3.5098   10.0124 N   0  0  0  1  0  0  0  0  0  0  0  0
    2.1831    2.3211   11.3704 N   0  0  0  1  0  0  0  0  0  0  0  0
    2.1029    3.0419   12.0296 H   0  0  0  1  0  0  0  0  0  0  0  0
    2.7251    1.5301   11.5729 H   0  0  0  1  0  0  0  0  0  0  0  0
    4.6050   -1.3860    4.8956 P   0  0  0  1  0  0  0  0  0  0  0  0
    3.4947    1.8467    5.7812 O   0  0  0  1  0  0  0  0  0  0  0  0
    5.0093   -0.9839    3.5298 O   0  0  0  1  0  0  0  0  0  0  0  0
    3.9590   -2.8714    4.9182 O   0  5  0  1  0  0  0  0  0  0  0  0
    5.7791   -1.2316    6.0011 O   0  5  0  1  0  0  0  0  0  0  0  0
    4.5610    2.7208    6.5561 P   0  0  0  1  0  0  0  0  0  0  0  0
    4.0002    4.2324    6.3824 O   0  0  0  1  0  0  0  0  0  0  0  0
    5.8726    2.5844    5.7995 O   0  0  0  0  0  0  0  0  0  0  0  0
    4.5926    2.3784    8.0103 O   0  0  0  1  0  0  0  0  0  0  0  0
    4.7948    5.4257    5.6503 S   0  0  0  1  0  0  0  0  0  0  0  0
    5.0420    4.8453    4.3492 O   0  0  0  1  0  0  0  0  0  0  0  0
    5.5250    4.0221    4.4520 H   0  0  0  1  0  0  0  0  0  0  0  0
    3.8948    6.5437    5.6146 O   0  0  0  1  0  0  0  0  0  0  0  0
    5.9808    5.6489    6.4255 O   0  0  0  1  0  0  0  0  0  0  0  0
  1  2  1  0  0  0  0
  1  4  1  0  0  0  0
  1  5  1  0  0  0  0
  2  3  1  0  0  0  0
  2  7  1  0  0  0  0
  2  9  1  0  0  0  0
  4 10  2  0  0  0  0
  4 11  1  0  0  0  0
  5  6  1  0  0  0  0
  5 12  2  0  0  0  0
  7  8  1  0  0  0  0
  7 13  1  0  0  0  0
  7 15  1  0  0  0  0
  9 17  1  0  0  0  0
 10 12  1  0  0  0  0
 10 19  1  0  0  0  0
 11 20  2  0  0  0  0
 13 14  1  0  0  0  0
 13 17  1  0  0  0  0
 13 22  1  0  0  0  0
 15 16  1  0  0  0  0
 17 18  1  0  0  0  0
 17 23  1  0  0  0  0
 19 26  2  0  0  0  0
 19 27  1  0  0  0  0
 20 21  1  0  0  0  0
 20 26  1  0  0  0  0
 22 30  1  0  0  0  0
 23 24  1  0  0  0  0
 23 25  1  0  0  0  0
 23 31  1  0  0  0  0
 27 28  1  0  0  0  0
 27 29  1  0  0  0  0
 30 32  2  0  0  0  0
 30 33  1  0  0  0  0
 30 34  1  0  0  0  0
 31 35  1  0  0  0  0
 35 36  1  0  0  0  0
 35 37  1  0  0  0  0
 35 38  2  0  0  0  0
 36 39  1  0  0  0  0
 39 40  1  0  0  0  0
 39 42  2  0  0  0  0
 39 43  2  0  0  0  0
 40 41  1  0  0  0  0
M  BCL ATM N_TrTrTrPi2 C_TeTeTeTe H_S C_TrTrTrPi C_TrTrTrPi H_S C_TeTeTeTe H_S O_Te2Te2TeTe C_TrTrTrPi N_Tr2TrTrPi N_Tr2TrTrPi C_TeTeTeTe H_S O_Te2Te2TeTe H_S C_TeTeTeTe H_S C_TrTrTrPi C_TrTrTrPi H_S O_Tr2TrTrPi2 C_TeTeTeTe H_S H_S N_Tr2TrTrPi N_TrTrTrPi2 H_S H_S P_TeTeTeTePi O_Tr2TrTrPi2 O_Tr2Tr2TrPi O_Te2Te2Te2Te O_Te2Te2Te2Te P_TeTeTeTePi O_Tr2TrTrPi2 O_Te2Te2TeTe O_Tr2Tr2TrPi S_TeTeTeTePiPi O_Te2Te2TeTe H_S O_Tr2Tr2TrPi O_Tr2Tr2TrPi
M  BCL BND NonConjugatedSingleBond AromaticSingleBond AromaticSingleBond NonConjugatedSingleBond NonConjugatedSingleBondInRing NonConjugatedSingleBondInRing AromaticDoubleBond AromaticSingleBond NonConjugatedSingleBond AromaticDoubleBond NonConjugatedSingleBond NonConjugatedSingleBondInRing NonConjugatedSingleBond NonConjugatedSingleBondInRing AromaticSingleBond AromaticSingleBond AromaticDoubleBond NonConjugatedSingleBond NonConjugatedSingleBondInRing NonConjugatedSingleBond NonConjugatedSingleBond NonConjugatedSingleBond NonConjugatedSingleBond AromaticDoubleBond ConjugatedSingleBond NonConjugatedSingleBond AromaticSingleBond ConjugatedSingleBond NonConjugatedSingleBond NonConjugatedSingleBond NonConjugatedSingleBond NonConjugatedSingleBond NonConjugatedSingleBond ConjugatedDoubleBond ConjugatedSingleBond ConjugatedSingleBond ConjugatedSingleBond ConjugatedSingleBond ConjugatedSingleBond ConjugatedDoubleBond ConjugatedSingleBond ConjugatedSingleBond ConjugatedDoubleBond ConjugatedDoubleBond NonConjugatedSingleBond
M  BCL CHI   2   R   7   R  13   S  17   S  35   R
M  BCL DBI - - - - - - - -
M  END
> <ConfClashScore>
0 

> <ConfOneFourInteractionScore>
-0.987537 

> <ConfScore>
-0.262832 

> <ConfScorePBest>
0.0109785 

> <ConfTolerance>
1.11661 

$$$$
ChEBI.****
  PyMOL2.5          3D                             0

 43 45  0  0  0  0  0  0  0  0999 V2000
    1.0953    0.8102    7.0747 N   0  0  0  1  0  0  0  0  0  0  0  0
    0.4206    0.5850    5.7803 C   0  0  0  1  0  0  0  0  0  0  0  0
   -0.6113    0.8553    5.8636 H   0  0  0  1  0  0  0  0  0  0  0  0
    0.8656    1.8304    7.9613 C   0  0  0  1  0  0  0  0  0  0  0  0
    1.9291   -0.0543    7.7152 C   0  0  0  1  0  0  0  0  0  0  0  0
    2.2789   -0.9269    7.2705 H   0  0  0  1  0  0  0  0  0  0  0  0
    0.5446   -0.8963    5.3736 C   0  0  0  1  0  0  0  0  0  0  0  0
    0.6235   -1.5293    6.2327 H   0  0  0  1  0  0  0  0  0  0  0  0
    1.0321    1.3456    4.7872 O   0  0  0  1  0  0  0  0  0  0  0  0
    1.5924    1.4974    9.1123 C   0  0  0  1  0  0  0  0  0  0  0  0
    0.1020    2.9097    7.7853 N   0  0  0  1  0  0  0  0  0  0  0  0
    2.2565    0.2944    8.9298 N   0  0  0  1  0  0  0  0  0  0  0  0
    1.8446   -0.8997    4.5589 C   0  0  0  1  0  0  0  0  0  0  0  0
    1.8122   -1.6406    3.7876 H   0  0  0  1  0  0  0  0  0  0  0  0
   -0.5668   -1.3097    4.5773 O   0  0  0  1  0  0  0  0  0  0  0  0
   -0.4964   -0.9207    3.7024 H   0  0  0  1  0  0  0  0  0  0  0  0
    1.8869    0.5129    3.9632 C   0  0  0  1  0  0  0  0  0  0  0  0
    1.5251    0.4980    2.9564 H   0  0  0  1  0  0  0  0  0  0  0  0
    1.4919    2.4001   10.1668 C   0  0  0  1  0  0  0  0  0  0  0  0
    0.1041    3.6842    8.8632 C   0  0  0  1  0  0  0  0  0  0  0  0
   -0.4686    4.5497    8.7963 H   0  0  0  1  0  0  0  0  0  0  0  0
    2.9817   -1.1367    5.4041 O   0  0  0  1  0  0  0  0  0  0  0  0
    3.2854    1.0360    3.9828 C   0  0  0  1  0  0  0  0  0  0  0  0
    3.9573    0.2941    3.6046 H   0  0  0  1  0  0  0  0  0  0  0  0
    3.5642    1.2936    4.9832 H   0  0  0  1  0  0  0  0  0  0  0  0
    0.7457    3.5013   10.0281 N   0  0  0  1  0  0  0  0  0  0  0  0
    2.1879    2.3087   11.3722 N   0  0  0  1  0  0  0  0  0  0  0  0
    2.7180    1.5092   11.5725 H   0  0  0  1  0  0  0  0  0  0  0  0
    2.1467    3.0441   12.0187 H   0  0  0  1  0  0  0  0  0  0  0  0
    3.9621   -2.4493    5.3283 P   0  0  0  1  0  0  0  0  0  0  0  0
    3.3259    2.2040    3.1475 O   0  0  0  1  0  0  0  0  0  0  0  0
    3.2788   -3.7616    5.2917 O   0  0  0  1  0  0  0  0  0  0  0  0
    5.0070   -2.2547    6.5509 O   0  5  0  1  0  0  0  0  0  0  0  0
    4.7212   -1.9971    3.9705 O   0  5  0  1  0  0  0  0  0  0  0  0
    4.6563    3.0512    2.7888 P   0  0  0  1  0  0  0  0  0  0  0  0
    5.6595    1.8849    2.1238 O   0  0  0  1  0  0  0  0  0  0  0  0
    5.1713    3.6320    4.0763 O   0  0  0  0  0  0  0  0  0  0  0  0
    4.2895    4.0524    1.8054 O   0  0  0  1  0  0  0  0  0  0  0  0
    6.7615    0.8857    2.5969 S   0  0  0  1  0  0  0  0  0  0  0  0
    6.2402    0.1783    3.7432 O   0  0  0  1  0  0  0  0  0  0  0  0
    5.5302    0.6889    4.1393 H   0  0  0  1  0  0  0  0  0  0  0  0
    7.0341   -0.0431    1.5478 O   0  0  0  1  0  0  0  0  0  0  0  0
    7.8483    1.7418    2.9353 O   0  0  0  1  0  0  0  0  0  0  0  0
  1  2  1  0  0  0  0
  1  4  1  0  0  0  0
  1  5  1  0  0  0  0
  2  3  1  0  0  0  0
  2  7  1  0  0  0  0
  2  9  1  0  0  0  0
  4 10  2  0  0  0  0
  4 11  1  0  0  0  0
  5  6  1  0  0  0  0
  5 12  2  0  0  0  0
  7  8  1  0  0  0  0
  7 13  1  0  0  0  0
  7 15  1  0  0  0  0
  9 17  1  0  0  0  0
 10 12  1  0  0  0  0
 10 19  1  0  0  0  0
 11 20  2  0  0  0  0
 13 14  1  0  0  0  0
 13 17  1  0  0  0  0
 13 22  1  0  0  0  0
 15 16  1  0  0  0  0
 17 18  1  0  0  0  0
 17 23  1  0  0  0  0
 19 26  2  0  0  0  0
 19 27  1  0  0  0  0
 20 21  1  0  0  0  0
 20 26  1  0  0  0  0
 22 30  1  0  0  0  0
 23 24  1  0  0  0  0
 23 25  1  0  0  0  0
 23 31  1  0  0  0  0
 27 28  1  0  0  0  0
 27 29  1  0  0  0  0
 30 32  2  0  0  0  0
 30 33  1  0  0  0  0
 30 34  1  0  0  0  0
 31 35  1  0  0  0  0
 35 36  1  0  0  0  0
 35 37  1  0  0  0  0
 35 38  2  0  0  0  0
 36 39  1  0  0  0  0
 39 40  1  0  0  0  0
 39 42  2  0  0  0  0
 39 43  2  0  0  0  0
 40 41  1  0  0  0  0
M  BCL ATM N_TrTrTrPi2 C_TeTeTeTe H_S C_TrTrTrPi C_TrTrTrPi H_S C_TeTeTeTe H_S O_Te2Te2TeTe C_TrTrTrPi N_Tr2TrTrPi N_Tr2TrTrPi C_TeTeTeTe H_S O_Te2Te2TeTe H_S C_TeTeTeTe H_S C_TrTrTrPi C_TrTrTrPi H_S O_Tr2TrTrPi2 C_TeTeTeTe H_S H_S N_Tr2TrTrPi N_TrTrTrPi2 H_S H_S P_TeTeTeTePi O_Tr2TrTrPi2 O_Tr2Tr2TrPi O_Te2Te2Te2Te O_Te2Te2Te2Te P_TeTeTeTePi O_Tr2TrTrPi2 O_Te2Te2TeTe O_Tr2Tr2TrPi S_TeTeTeTePiPi O_Te2Te2TeTe H_S O_Tr2Tr2TrPi O_Tr2Tr2TrPi
M  BCL BND NonConjugatedSingleBond AromaticSingleBond AromaticSingleBond NonConjugatedSingleBond NonConjugatedSingleBondInRing NonConjugatedSingleBondInRing AromaticDoubleBond AromaticSingleBond NonConjugatedSingleBond AromaticDoubleBond NonConjugatedSingleBond NonConjugatedSingleBondInRing NonConjugatedSingleBond NonConjugatedSingleBondInRing AromaticSingleBond AromaticSingleBond AromaticDoubleBond NonConjugatedSingleBond NonConjugatedSingleBondInRing NonConjugatedSingleBond NonConjugatedSingleBond NonConjugatedSingleBond NonConjugatedSingleBond AromaticDoubleBond ConjugatedSingleBond NonConjugatedSingleBond AromaticSingleBond ConjugatedSingleBond NonConjugatedSingleBond NonConjugatedSingleBond NonConjugatedSingleBond NonConjugatedSingleBond NonConjugatedSingleBond ConjugatedDoubleBond ConjugatedSingleBond ConjugatedSingleBond ConjugatedSingleBond ConjugatedSingleBond ConjugatedSingleBond ConjugatedDoubleBond ConjugatedSingleBond ConjugatedSingleBond ConjugatedDoubleBond ConjugatedDoubleBond NonConjugatedSingleBond
M  BCL CHI   2   R   7   R  13   S  17   S  35   R
M  BCL DBI - - - - - - - -
M  END
> <ConfClashScore>
0 

> <ConfOneFourInteractionScore>
-0.970233 

> <ConfScore>
-0.262568 

> <ConfScorePBest>
0.0108755 

> <ConfTolerance>
1.08762 

$$$$
ChEBI.****
  PyMOL2.5          3D                             0

 43 45  0  0  0  0  0  0  0  0999 V2000
    1.0704    0.7874    7.1056 N   0  0  0  1  0  0  0  0  0  0  0  0
    0.4959    0.6219    5.7589 C   0  0  0  1  0  0  0  0  0  0  0  0
    1.2263    0.8882    5.0238 H   0  0  0  1  0  0  0  0  0  0  0  0
    0.8477    1.8209    7.9784 C   0  0  0  1  0  0  0  0  0  0  0  0
    1.9318   -0.0532    7.7414 C   0  0  0  1  0  0  0  0  0  0  0  0
    2.2831   -0.9291    7.3046 H   0  0  0  1  0  0  0  0  0  0  0  0
   -0.7563    1.4870    5.6038 C   0  0  0  1  0  0  0  0  0  0  0  0
   -1.2653    1.6122    6.5366 H   0  0  0  1  0  0  0  0  0  0  0  0
    0.0619   -0.7290    5.5643 O   0  0  0  1  0  0  0  0  0  0  0  0
    1.6070    1.5200    9.1172 C   0  0  0  1  0  0  0  0  0  0  0  0
    0.0647    2.8860    7.8012 N   0  0  0  1  0  0  0  0  0  0  0  0
    2.2836    0.3230    8.9408 N   0  0  0  1  0  0  0  0  0  0  0  0
   -1.5709    0.6470    4.6312 C   0  0  0  1  0  0  0  0  0  0  0  0
   -1.2983    0.8729    3.6215 H   0  0  0  1  0  0  0  0  0  0  0  0
   -0.4437    2.7684    5.0555 O   0  0  0  1  0  0  0  0  0  0  0  0
   -0.9388    3.4459    5.5218 H   0  0  0  1  0  0  0  0  0  0  0  0
   -1.2412   -0.7458    4.9531 C   0  0  0  1  0  0  0  0  0  0  0  0
   -1.2228   -1.3364    4.0610 H   0  0  0  1  0  0  0  0  0  0  0  0
    1.5193    2.4410   10.1568 C   0  0  0  1  0  0  0  0  0  0  0  0
    0.0820    3.6808    8.8641 C   0  0  0  1  0  0  0  0  0  0  0  0
   -0.5046    4.5369    8.7952 H   0  0  0  1  0  0  0  0  0  0  0  0
   -2.9898    0.8889    4.8156 O   0  0  0  1  0  0  0  0  0  0  0  0
   -2.2481   -1.3075    5.9021 C   0  0  0  1  0  0  0  0  0  0  0  0
   -3.2365   -1.1212    5.5371 H   0  0  0  1  0  0  0  0  0  0  0  0
   -2.1322   -0.8564    6.8654 H   0  0  0  1  0  0  0  0  0  0  0  0
    0.7543    3.5290   10.0160 N   0  0  0  1  0  0  0  0  0  0  0  0
    2.1844    2.2946   11.3392 N   0  0  0  1  0  0  0  0  0  0  0  0
    2.1398    3.0007   12.0172 H   0  0  0  1  0  0  0  0  0  0  0  0
    2.7067    1.4832   11.5103 H   0  0  0  1  0  0  0  0  0  0  0  0
   -4.0067    1.2471    3.5798 P   0  0  0  1  0  0  0  0  0  0  0  0
   -2.0174   -2.7330    5.9945 O   0  0  0  1  0  0  0  0  0  0  0  0
   -3.9992    0.1765    2.5579 O   0  0  0  1  0  0  0  0  0  0  0  0
   -3.7488    2.7789    3.1200 O   0  5  0  1  0  0  0  0  0  0  0  0
   -5.4522    1.3124    4.3081 O   0  5  0  1  0  0  0  0  0  0  0  0
   -2.9249   -3.6500    6.9362 P   0  0  0  1  0  0  0  0  0  0  0  0
   -2.1452   -5.1242    6.7695 O   0  0  0  1  0  0  0  0  0  0  0  0
   -4.3277   -3.6944    6.4192 O   0  0  0  0  0  0  0  0  0  0  0  0
   -2.7678   -3.2277    8.3645 O   0  0  0  1  0  0  0  0  0  0  0  0
   -0.6705   -5.6725    6.4575 S   0  0  0  1  0  0  0  0  0  0  0  0
   -0.8408   -6.7614    5.5107 O   0  0  0  1  0  0  0  0  0  0  0  0
   -0.2854   -6.6081    4.7428 H   0  0  0  1  0  0  0  0  0  0  0  0
   -0.0295   -4.5058    5.9208 O   0  0  0  1  0  0  0  0  0  0  0  0
   -0.1363   -6.1208    7.7162 O   0  0  0  1  0  0  0  0  0  0  0  0
  1  2  1  0  0  0  0
  1  4  1  0  0  0  0
  1  5  1  0  0  0  0
  2  3  1  0  0  0  0
  2  7  1  0  0  0  0
  2  9  1  0  0  0  0
  4 10  2  0  0  0  0
  4 11  1  0  0  0  0
  5  6  1  0  0  0  0
  5 12  2  0  0  0  0
  7  8  1  0  0  0  0
  7 13  1  0  0  0  0
  7 15  1  0  0  0  0
  9 17  1  0  0  0  0
 10 12  1  0  0  0  0
 10 19  1  0  0  0  0
 11 20  2  0  0  0  0
 13 14  1  0  0  0  0
 13 17  1  0  0  0  0
 13 22  1  0  0  0  0
 15 16  1  0  0  0  0
 17 18  1  0  0  0  0
 17 23  1  0  0  0  0
 19 26  2  0  0  0  0
 19 27  1  0  0  0  0
 20 21  1  0  0  0  0
 20 26  1  0  0  0  0
 22 30  1  0  0  0  0
 23 24  1  0  0  0  0
 23 25  1  0  0  0  0
 23 31  1  0  0  0  0
 27 28  1  0  0  0  0
 27 29  1  0  0  0  0
 30 32  2  0  0  0  0
 30 33  1  0  0  0  0
 30 34  1  0  0  0  0
 31 35  1  0  0  0  0
 35 36  1  0  0  0  0
 35 37  1  0  0  0  0
 35 38  2  0  0  0  0
 36 39  1  0  0  0  0
 39 40  1  0  0  0  0
 39 42  2  0  0  0  0
 39 43  2  0  0  0  0
 40 41  1  0  0  0  0
M  BCL ATM N_TrTrTrPi2 C_TeTeTeTe H_S C_TrTrTrPi C_TrTrTrPi H_S C_TeTeTeTe H_S O_Te2Te2TeTe C_TrTrTrPi N_Tr2TrTrPi N_Tr2TrTrPi C_TeTeTeTe H_S O_Te2Te2TeTe H_S C_TeTeTeTe H_S C_TrTrTrPi C_TrTrTrPi H_S O_Tr2TrTrPi2 C_TeTeTeTe H_S H_S N_Tr2TrTrPi N_TrTrTrPi2 H_S H_S P_TeTeTeTePi O_Tr2TrTrPi2 O_Tr2Tr2TrPi O_Te2Te2Te2Te O_Te2Te2Te2Te P_TeTeTeTePi O_Tr2TrTrPi2 O_Te2Te2TeTe O_Tr2Tr2TrPi S_TeTeTeTePiPi O_Te2Te2TeTe H_S O_Tr2Tr2TrPi O_Tr2Tr2TrPi
M  BCL BND NonConjugatedSingleBond AromaticSingleBond AromaticSingleBond NonConjugatedSingleBond NonConjugatedSingleBondInRing NonConjugatedSingleBondInRing AromaticDoubleBond AromaticSingleBond NonConjugatedSingleBond AromaticDoubleBond NonConjugatedSingleBond NonConjugatedSingleBondInRing NonConjugatedSingleBond NonConjugatedSingleBondInRing AromaticSingleBond AromaticSingleBond AromaticDoubleBond NonConjugatedSingleBond NonConjugatedSingleBondInRing NonConjugatedSingleBond NonConjugatedSingleBond NonConjugatedSingleBond NonConjugatedSingleBond AromaticDoubleBond ConjugatedSingleBond NonConjugatedSingleBond AromaticSingleBond ConjugatedSingleBond NonConjugatedSingleBond NonConjugatedSingleBond NonConjugatedSingleBond NonConjugatedSingleBond NonConjugatedSingleBond ConjugatedDoubleBond ConjugatedSingleBond ConjugatedSingleBond ConjugatedSingleBond ConjugatedSingleBond ConjugatedSingleBond ConjugatedDoubleBond ConjugatedSingleBond ConjugatedSingleBond ConjugatedDoubleBond ConjugatedDoubleBond NonConjugatedSingleBond
M  BCL CHI   2   R   7   R  13   S  17   S  35   R
M  BCL DBI - - - - - - - -
M  END
> <ConfClashScore>
0 

> <ConfOneFourInteractionScore>
-0.97503 

> <ConfScore>
-0.262175 

> <ConfScorePBest>
0.0107725 

> <ConfTolerance>
0.887285 

$$$$
ChEBI.****
  PyMOL2.5          3D                             0

 43 45  0  0  0  0  0  0  0  0999 V2000
    1.0589    0.7813    7.1188 N   0  0  0  1  0  0  0  0  0  0  0  0
    0.5680    0.6607    5.7623 C   0  0  0  1  0  0  0  0  0  0  0  0
    0.0073    1.5353    5.5063 H   0  0  0  1  0  0  0  0  0  0  0  0
    0.8337    1.8202    7.9846 C   0  0  0  1  0  0  0  0  0  0  0  0
    1.9256   -0.0507    7.7586 C   0  0  0  1  0  0  0  0  0  0  0  0
    2.2799   -0.9282    7.3273 H   0  0  0  1  0  0  0  0  0  0  0  0
   -0.3235   -0.5851    5.6391 C   0  0  0  1  0  0  0  0  0  0  0  0
   -0.6138   -0.9484    6.6027 H   0  0  0  1  0  0  0  0  0  0  0  0
    1.6437    0.5106    4.8793 O   0  0  0  1  0  0  0  0  0  0  0  0
    1.5972    1.5310    9.1236 C   0  0  0  1  0  0  0  0  0  0  0  0
    0.0454    2.8804    7.8015 N   0  0  0  1  0  0  0  0  0  0  0  0
    2.2787    0.3359    8.9543 N   0  0  0  1  0  0  0  0  0  0  0  0
    0.5924   -1.5869    4.9233 C   0  0  0  1  0  0  0  0  0  0  0  0
    0.0244   -2.2499    4.3047 H   0  0  0  1  0  0  0  0  0  0  0  0
   -1.4819   -0.3105    4.8680 O   0  0  0  1  0  0  0  0  0  0  0  0
   -1.3758   -0.6789    3.9879 H   0  0  0  1  0  0  0  0  0  0  0  0
    1.4929   -0.7067    4.0873 C   0  0  0  1  0  0  0  0  0  0  0  0
    1.0400   -0.4902    3.1423 H   0  0  0  1  0  0  0  0  0  0  0  0
    1.5079    2.4593   10.1567 C   0  0  0  1  0  0  0  0  0  0  0  0
    0.0618    3.6831    8.8586 C   0  0  0  1  0  0  0  0  0  0  0  0
   -0.5288    4.5360    8.7849 H   0  0  0  1  0  0  0  0  0  0  0  0
    1.3606   -2.3549    5.8749 O   0  0  0  1  0  0  0  0  0  0  0  0
    2.8167   -1.3618    3.8672 C   0  0  0  1  0  0  0  0  0  0  0  0
    2.7007   -2.2120    3.2280 H   0  0  0  1  0  0  0  0  0  0  0  0
    3.2295   -1.6729    4.8040 H   0  0  0  1  0  0  0  0  0  0  0  0
    0.7376    3.5427   10.0099 N   0  0  0  1  0  0  0  0  0  0  0  0
    2.2014    2.2745   11.3237 N   0  0  0  1  0  0  0  0  0  0  0  0
    2.1278    2.9319   12.0467 H   0  0  0  1  0  0  0  0  0  0  0  0
    2.7711    1.4850   11.4354 H   0  0  0  1  0  0  0  0  0  0  0  0
    1.0469   -3.9458    6.1200 P   0  0  0  1  0  0  0  0  0  0  0  0
    3.6890   -0.3909    3.2424 O   0  0  0  1  0  0  0  0  0  0  0  0
    0.9237   -4.6637    4.8317 O   0  0  0  1  0  0  0  0  0  0  0  0
   -0.2389   -4.0970    7.0939 O   0  5  0  1  0  0  0  0  0  0  0  0
    2.3768   -4.4620    6.8877 O   0  5  0  1  0  0  0  0  0  0  0  0
    5.0769   -0.9044    2.5855 P   0  0  0  1  0  0  0  0  0  0  0  0
    4.6401   -2.1019    1.5831 O   0  0  0  1  0  0  0  0  0  0  0  0
    5.8759   -1.4207    3.7440 O   0  0  0  0  0  0  0  0  0  0  0  0
    5.6951    0.1200    1.7107 O   0  0  0  1  0  0  0  0  0  0  0  0
    5.4082   -2.4791    0.2080 S   0  0  0  1  0  0  0  0  0  0  0  0
    6.4325   -1.4741    0.2251 O   0  0  0  1  0  0  0  0  0  0  0  0
    7.2667   -1.8621   -0.0492 H   0  0  0  1  0  0  0  0  0  0  0  0
    5.8617   -3.7915    0.3790 O   0  0  0  1  0  0  0  0  0  0  0  0
    4.4548   -2.3130   -0.8278 O   0  0  0  1  0  0  0  0  0  0  0  0
  1  2  1  0  0  0  0
  1  4  1  0  0  0  0
  1  5  1  0  0  0  0
  2  3  1  0  0  0  0
  2  7  1  0  0  0  0
  2  9  1  0  0  0  0
  4 10  2  0  0  0  0
  4 11  1  0  0  0  0
  5  6  1  0  0  0  0
  5 12  2  0  0  0  0
  7  8  1  0  0  0  0
  7 13  1  0  0  0  0
  7 15  1  0  0  0  0
  9 17  1  0  0  0  0
 10 12  1  0  0  0  0
 10 19  1  0  0  0  0
 11 20  2  0  0  0  0
 13 14  1  0  0  0  0
 13 17  1  0  0  0  0
 13 22  1  0  0  0  0
 15 16  1  0  0  0  0
 17 18  1  0  0  0  0
 17 23  1  0  0  0  0
 19 26  2  0  0  0  0
 19 27  1  0  0  0  0
 20 21  1  0  0  0  0
 20 26  1  0  0  0  0
 22 30  1  0  0  0  0
 23 24  1  0  0  0  0
 23 25  1  0  0  0  0
 23 31  1  0  0  0  0
 27 28  1  0  0  0  0
 27 29  1  0  0  0  0
 30 32  2  0  0  0  0
 30 33  1  0  0  0  0
 30 34  1  0  0  0  0
 31 35  1  0  0  0  0
 35 36  1  0  0  0  0
 35 37  1  0  0  0  0
 35 38  2  0  0  0  0
 36 39  1  0  0  0  0
 39 40  1  0  0  0  0
 39 42  2  0  0  0  0
 39 43  2  0  0  0  0
 40 41  1  0  0  0  0
M  BCL ATM N_TrTrTrPi2 C_TeTeTeTe H_S C_TrTrTrPi C_TrTrTrPi H_S C_TeTeTeTe H_S O_Te2Te2TeTe C_TrTrTrPi N_Tr2TrTrPi N_Tr2TrTrPi C_TeTeTeTe H_S O_Te2Te2TeTe H_S C_TeTeTeTe H_S C_TrTrTrPi C_TrTrTrPi H_S O_Tr2TrTrPi2 C_TeTeTeTe H_S H_S N_Tr2TrTrPi N_TrTrTrPi2 H_S H_S P_TeTeTeTePi O_Tr2TrTrPi2 O_Tr2Tr2TrPi O_Te2Te2Te2Te O_Te2Te2Te2Te P_TeTeTeTePi O_Tr2TrTrPi2 O_Te2Te2TeTe O_Tr2Tr2TrPi S_TeTeTeTePiPi O_Te2Te2TeTe H_S O_Tr2Tr2TrPi O_Tr2Tr2TrPi
M  BCL BND NonConjugatedSingleBond AromaticSingleBond AromaticSingleBond NonConjugatedSingleBond NonConjugatedSingleBondInRing NonConjugatedSingleBondInRing AromaticDoubleBond AromaticSingleBond NonConjugatedSingleBond AromaticDoubleBond NonConjugatedSingleBond NonConjugatedSingleBondInRing NonConjugatedSingleBond NonConjugatedSingleBondInRing AromaticSingleBond AromaticSingleBond AromaticDoubleBond NonConjugatedSingleBond NonConjugatedSingleBondInRing NonConjugatedSingleBond NonConjugatedSingleBond NonConjugatedSingleBond NonConjugatedSingleBond AromaticDoubleBond ConjugatedSingleBond NonConjugatedSingleBond AromaticSingleBond ConjugatedSingleBond NonConjugatedSingleBond NonConjugatedSingleBond NonConjugatedSingleBond NonConjugatedSingleBond NonConjugatedSingleBond ConjugatedDoubleBond ConjugatedSingleBond ConjugatedSingleBond ConjugatedSingleBond ConjugatedSingleBond ConjugatedSingleBond ConjugatedDoubleBond ConjugatedSingleBond ConjugatedSingleBond ConjugatedDoubleBond ConjugatedDoubleBond NonConjugatedSingleBond
M  BCL CHI   2   R   7   R  13   S  17   S  35   R
M  BCL DBI - - - - - - - -
M  END
> <ConfClashScore>
0 

> <ConfOneFourInteractionScore>
-0.970819 

> <ConfScore>
-0.262091 

> <ConfScorePBest>
0.0106695 

> <ConfTolerance>
1.21945 

$$$$
ChEBI.****
  PyMOL2.5          3D                             0

 43 45  0  0  0  0  0  0  0  0999 V2000
    1.0610    0.7772    7.0943 N   0  0  0  1  0  0  0  0  0  0  0  0
    0.4525    0.6711    5.7536 C   0  0  0  1  0  0  0  0  0  0  0  0
    0.5838    1.5937    5.2278 H   0  0  0  1  0  0  0  0  0  0  0  0
    0.8508    1.8113    7.9696 C   0  0  0  1  0  0  0  0  0  0  0  0
    1.9150   -0.0734    7.7267 C   0  0  0  1  0  0  0  0  0  0  0  0
    2.2564   -0.9520    7.2873 H   0  0  0  1  0  0  0  0  0  0  0  0
   -1.0416    0.3305    5.8703 C   0  0  0  1  0  0  0  0  0  0  0  0
   -1.4673    0.7583    6.7538 H   0  0  0  1  0  0  0  0  0  0  0  0
    1.0312   -0.3826    5.0390 O   0  0  0  1  0  0  0  0  0  0  0  0
    1.6093    1.5003    9.1061 C   0  0  0  1  0  0  0  0  0  0  0  0
    0.0783    2.8846    7.7962 N   0  0  0  1  0  0  0  0  0  0  0  0
    2.2733    0.2968    8.9260 N   0  0  0  1  0  0  0  0  0  0  0  0
   -1.0308   -1.1861    5.9464 C   0  0  0  1  0  0  0  0  0  0  0  0
   -1.9233   -1.5994    5.5249 H   0  0  0  1  0  0  0  0  0  0  0  0
   -1.7646    0.7839    4.7249 O   0  0  0  1  0  0  0  0  0  0  0  0
   -1.6575    1.7335    4.6336 H   0  0  0  1  0  0  0  0  0  0  0  0
    0.2113   -1.5631    5.1017 C   0  0  0  1  0  0  0  0  0  0  0  0
   -0.0864   -1.8599    4.1177 H   0  0  0  1  0  0  0  0  0  0  0  0
    1.5333    2.4201   10.1478 C   0  0  0  1  0  0  0  0  0  0  0  0
    0.1060    3.6772    8.8606 C   0  0  0  1  0  0  0  0  0  0  0  0
   -0.4719    4.5393    8.7946 H   0  0  0  1  0  0  0  0  0  0  0  0
   -0.8890   -1.6350    7.3036 O   0  0  0  1  0  0  0  0  0  0  0  0
    0.9603   -2.6785    5.7535 C   0  0  0  1  0  0  0  0  0  0  0  0
    0.3780   -3.5756    5.7226 H   0  0  0  1  0  0  0  0  0  0  0  0
    1.1754   -2.4272    6.7711 H   0  0  0  1  0  0  0  0  0  0  0  0
    0.7792    3.5161   10.0108 N   0  0  0  1  0  0  0  0  0  0  0  0
    2.1874    2.3159   11.3706 N   0  0  0  1  0  0  0  0  0  0  0  0
    2.7679    1.5474   11.5518 H   0  0  0  1  0  0  0  0  0  0  0  0
    2.0678    3.0109   12.0510 H   0  0  0  1  0  0  0  0  0  0  0  0
   -1.3595   -3.0997    7.8717 P   0  0  0  1  0  0  0  0  0  0  0  0
    2.1940   -2.8663    5.0210 O   0  0  0  1  0  0  0  0  0  0  0  0
   -2.5257   -3.6073    7.1149 O   0  0  0  1  0  0  0  0  0  0  0  0
   -1.9015   -2.8001    9.3687 O   0  5  0  1  0  0  0  0  0  0  0  0
   -0.0948   -4.1116    7.9028 O   0  5  0  1  0  0  0  0  0  0  0  0
    3.0428   -4.2198    5.1724 P   0  0  0  1  0  0  0  0  0  0  0  0
    3.4622   -4.1634    6.7941 O   0  0  0  1  0  0  0  0  0  0  0  0
    4.2353   -4.1280    4.3099 O   0  0  0  0  0  0  0  0  0  0  0  0
    2.1457   -5.3645    5.0101 O   0  0  0  1  0  0  0  0  0  0  0  0
    3.8471   -3.0631    7.8959 S   0  0  0  1  0  0  0  0  0  0  0  0
    4.6192   -2.0551    7.1997 O   0  0  0  1  0  0  0  0  0  0  0  0
    4.2719   -1.9420    6.3119 H   0  0  0  1  0  0  0  0  0  0  0  0
    2.5542   -2.6269    8.3412 O   0  0  0  1  0  0  0  0  0  0  0  0
    4.6220   -3.7524    8.8960 O   0  0  0  1  0  0  0  0  0  0  0  0
  1  2  1  0  0  0  0
  1  4  1  0  0  0  0
  1  5  1  0  0  0  0
  2  3  1  0  0  0  0
  2  7  1  0  0  0  0
  2  9  1  0  0  0  0
  4 10  2  0  0  0  0
  4 11  1  0  0  0  0
  5  6  1  0  0  0  0
  5 12  2  0  0  0  0
  7  8  1  0  0  0  0
  7 13  1  0  0  0  0
  7 15  1  0  0  0  0
  9 17  1  0  0  0  0
 10 12  1  0  0  0  0
 10 19  1  0  0  0  0
 11 20  2  0  0  0  0
 13 14  1  0  0  0  0
 13 17  1  0  0  0  0
 13 22  1  0  0  0  0
 15 16  1  0  0  0  0
 17 18  1  0  0  0  0
 17 23  1  0  0  0  0
 19 26  2  0  0  0  0
 19 27  1  0  0  0  0
 20 21  1  0  0  0  0
 20 26  1  0  0  0  0
 22 30  1  0  0  0  0
 23 24  1  0  0  0  0
 23 25  1  0  0  0  0
 23 31  1  0  0  0  0
 27 28  1  0  0  0  0
 27 29  1  0  0  0  0
 30 32  2  0  0  0  0
 30 33  1  0  0  0  0
 30 34  1  0  0  0  0
 31 35  1  0  0  0  0
 35 36  1  0  0  0  0
 35 37  1  0  0  0  0
 35 38  2  0  0  0  0
 36 39  1  0  0  0  0
 39 40  1  0  0  0  0
 39 42  2  0  0  0  0
 39 43  2  0  0  0  0
 40 41  1  0  0  0  0
M  BCL ATM N_TrTrTrPi2 C_TeTeTeTe H_S C_TrTrTrPi C_TrTrTrPi H_S C_TeTeTeTe H_S O_Te2Te2TeTe C_TrTrTrPi N_Tr2TrTrPi N_Tr2TrTrPi C_TeTeTeTe H_S O_Te2Te2TeTe H_S C_TeTeTeTe H_S C_TrTrTrPi C_TrTrTrPi H_S O_Tr2TrTrPi2 C_TeTeTeTe H_S H_S N_Tr2TrTrPi N_TrTrTrPi2 H_S H_S P_TeTeTeTePi O_Tr2TrTrPi2 O_Tr2Tr2TrPi O_Te2Te2Te2Te O_Te2Te2Te2Te P_TeTeTeTePi O_Tr2TrTrPi2 O_Te2Te2TeTe O_Tr2Tr2TrPi S_TeTeTeTePiPi O_Te2Te2TeTe H_S O_Tr2Tr2TrPi O_Tr2Tr2TrPi
M  BCL BND NonConjugatedSingleBond AromaticSingleBond AromaticSingleBond NonConjugatedSingleBond NonConjugatedSingleBondInRing NonConjugatedSingleBondInRing AromaticDoubleBond AromaticSingleBond NonConjugatedSingleBond AromaticDoubleBond NonConjugatedSingleBond NonConjugatedSingleBondInRing NonConjugatedSingleBond NonConjugatedSingleBondInRing AromaticSingleBond AromaticSingleBond AromaticDoubleBond NonConjugatedSingleBond NonConjugatedSingleBondInRing NonConjugatedSingleBond NonConjugatedSingleBond NonConjugatedSingleBond NonConjugatedSingleBond AromaticDoubleBond ConjugatedSingleBond NonConjugatedSingleBond AromaticSingleBond ConjugatedSingleBond NonConjugatedSingleBond NonConjugatedSingleBond NonConjugatedSingleBond NonConjugatedSingleBond NonConjugatedSingleBond ConjugatedDoubleBond ConjugatedSingleBond ConjugatedSingleBond ConjugatedSingleBond ConjugatedSingleBond ConjugatedSingleBond ConjugatedDoubleBond ConjugatedSingleBond ConjugatedSingleBond ConjugatedDoubleBond ConjugatedDoubleBond NonConjugatedSingleBond
M  BCL CHI   2   R   7   R  13   S  17   S  35   R
M  BCL DBI - - - - - - - -
M  END
> <ConfClashScore>
0 

> <ConfOneFourInteractionScore>
-0.983639 

> <ConfScore>
-0.260426 

> <ConfScorePBest>
0.0105665 

> <ConfTolerance>
1.13112 

$$$$
ChEBI.****
  PyMOL2.5          3D                             0

 43 45  0  0  0  0  0  0  0  0999 V2000
    1.0868    0.7890    7.0763 N   0  0  0  1  0  0  0  0  0  0  0  0
    0.4071    0.6240    5.7597 C   0  0  0  1  0  0  0  0  0  0  0  0
    0.6150   -0.3506    5.3700 H   0  0  0  1  0  0  0  0  0  0  0  0
    0.8629    1.8115    7.9618 C   0  0  0  1  0  0  0  0  0  0  0  0
    1.9489   -0.0585    7.7020 C   0  0  0  1  0  0  0  0  0  0  0  0
    2.3012   -0.9286    7.2545 H   0  0  0  1  0  0  0  0  0  0  0  0
    0.8624    1.6899    4.7913 C   0  0  0  1  0  0  0  0  0  0  0  0
    1.0552    2.6141    5.2949 H   0  0  0  1  0  0  0  0  0  0  0  0
   -1.0122    0.8209    5.8962 O   0  0  0  1  0  0  0  0  0  0  0  0
    1.6221    1.4973    9.0969 C   0  0  0  1  0  0  0  0  0  0  0  0
    0.0788    2.8778    7.7975 N   0  0  0  1  0  0  0  0  0  0  0  0
    2.3000    0.3033    8.9060 N   0  0  0  1  0  0  0  0  0  0  0  0
   -0.3225    1.8097    3.8646 C   0  0  0  1  0  0  0  0  0  0  0  0
   -0.2836    1.0667    3.0956 H   0  0  0  1  0  0  0  0  0  0  0  0
    2.0330    1.2794    4.0834 O   0  0  0  1  0  0  0  0  0  0  0  0
    2.7240    1.0535    4.7104 H   0  0  0  1  0  0  0  0  0  0  0  0
   -1.5076    1.5816    4.7789 C   0  0  0  1  0  0  0  0  0  0  0  0
   -2.2710    1.0339    4.2668 H   0  0  0  1  0  0  0  0  0  0  0  0
    1.5332    2.4053   10.1479 C   0  0  0  1  0  0  0  0  0  0  0  0
    0.0950    3.6595    8.8701 C   0  0  0  1  0  0  0  0  0  0  0  0
   -0.4924    4.5158    8.8116 H   0  0  0  1  0  0  0  0  0  0  0  0
   -0.3779    3.1152    3.2675 O   0  0  0  1  0  0  0  0  0  0  0  0
   -2.0597    2.8880    5.2463 C   0  0  0  1  0  0  0  0  0  0  0  0
   -2.2799    3.5122    4.4057 H   0  0  0  1  0  0  0  0  0  0  0  0
   -1.3496    3.3782    5.8790 H   0  0  0  1  0  0  0  0  0  0  0  0
    0.7671    3.4941   10.0203 N   0  0  0  1  0  0  0  0  0  0  0  0
    2.1698    2.3341   11.3904 N   0  0  0  1  0  0  0  0  0  0  0  0
    1.9965    3.0189   12.0697 H   0  0  0  1  0  0  0  0  0  0  0  0
    2.7893    1.5995   11.5822 H   0  0  0  1  0  0  0  0  0  0  0  0
    0.8363    3.7376    2.3577 P   0  0  0  1  0  0  0  0  0  0  0  0
   -3.2723    2.6129    5.9869 O   0  0  0  1  0  0  0  0  0  0  0  0
    2.1237    3.6767    3.0853 O   0  0  0  1  0  0  0  0  0  0  0  0
    0.3153    5.1728    1.8163 O   0  5  0  1  0  0  0  0  0  0  0  0
    0.8645    2.7623    1.0645 O   0  5  0  1  0  0  0  0  0  0  0  0
   -3.9643    3.7219    6.8174 P   0  0  0  1  0  0  0  0  0  0  0  0
   -2.8310    4.0407    7.9326 O   0  0  0  1  0  0  0  0  0  0  0  0
   -5.1338    3.0299    7.5602 O   0  0  0  0  0  0  0  0  0  0  0  0
   -4.3067    4.8817    5.9884 O   0  0  0  1  0  0  0  0  0  0  0  0
   -2.8855    3.5565    9.4268 S   0  0  0  1  0  0  0  0  0  0  0  0
   -2.0840    4.6301   10.0251 O   0  0  0  1  0  0  0  0  0  0  0  0
   -2.0017    4.4802   10.9697 H   0  0  0  1  0  0  0  0  0  0  0  0
   -4.1928    3.5917    9.9247 O   0  0  0  1  0  0  0  0  0  0  0  0
   -2.1278    2.3550    9.4509 O   0  0  0  1  0  0  0  0  0  0  0  0
  1  2  1  0  0  0  0
  1  4  1  0  0  0  0
  1  5  1  0  0  0  0
  2  3  1  0  0  0  0
  2  7  1  0  0  0  0
  2  9  1  0  0  0  0
  4 10  2  0  0  0  0
  4 11  1  0  0  0  0
  5  6  1  0  0  0  0
  5 12  2  0  0  0  0
  7  8  1  0  0  0  0
  7 13  1  0  0  0  0
  7 15  1  0  0  0  0
  9 17  1  0  0  0  0
 10 12  1  0  0  0  0
 10 19  1  0  0  0  0
 11 20  2  0  0  0  0
 13 14  1  0  0  0  0
 13 17  1  0  0  0  0
 13 22  1  0  0  0  0
 15 16  1  0  0  0  0
 17 18  1  0  0  0  0
 17 23  1  0  0  0  0
 19 26  2  0  0  0  0
 19 27  1  0  0  0  0
 20 21  1  0  0  0  0
 20 26  1  0  0  0  0
 22 30  1  0  0  0  0
 23 24  1  0  0  0  0
 23 25  1  0  0  0  0
 23 31  1  0  0  0  0
 27 28  1  0  0  0  0
 27 29  1  0  0  0  0
 30 32  2  0  0  0  0
 30 33  1  0  0  0  0
 30 34  1  0  0  0  0
 31 35  1  0  0  0  0
 35 36  1  0  0  0  0
 35 37  1  0  0  0  0
 35 38  2  0  0  0  0
 36 39  1  0  0  0  0
 39 40  1  0  0  0  0
 39 42  2  0  0  0  0
 39 43  2  0  0  0  0
 40 41  1  0  0  0  0
M  BCL ATM N_TrTrTrPi2 C_TeTeTeTe H_S C_TrTrTrPi C_TrTrTrPi H_S C_TeTeTeTe H_S O_Te2Te2TeTe C_TrTrTrPi N_Tr2TrTrPi N_Tr2TrTrPi C_TeTeTeTe H_S O_Te2Te2TeTe H_S C_TeTeTeTe H_S C_TrTrTrPi C_TrTrTrPi H_S O_Tr2TrTrPi2 C_TeTeTeTe H_S H_S N_Tr2TrTrPi N_TrTrTrPi2 H_S H_S P_TeTeTeTePi O_Tr2TrTrPi2 O_Tr2Tr2TrPi O_Te2Te2Te2Te O_Te2Te2Te2Te P_TeTeTeTePi O_Tr2TrTrPi2 O_Te2Te2TeTe O_Tr2Tr2TrPi S_TeTeTeTePiPi O_Te2Te2TeTe H_S O_Tr2Tr2TrPi O_Tr2Tr2TrPi
M  BCL BND NonConjugatedSingleBond AromaticSingleBond AromaticSingleBond NonConjugatedSingleBond NonConjugatedSingleBondInRing NonConjugatedSingleBondInRing AromaticDoubleBond AromaticSingleBond NonConjugatedSingleBond AromaticDoubleBond NonConjugatedSingleBond NonConjugatedSingleBondInRing NonConjugatedSingleBond NonConjugatedSingleBondInRing AromaticSingleBond AromaticSingleBond AromaticDoubleBond NonConjugatedSingleBond NonConjugatedSingleBondInRing NonConjugatedSingleBond NonConjugatedSingleBond NonConjugatedSingleBond NonConjugatedSingleBond AromaticDoubleBond ConjugatedSingleBond NonConjugatedSingleBond AromaticSingleBond ConjugatedSingleBond NonConjugatedSingleBond NonConjugatedSingleBond NonConjugatedSingleBond NonConjugatedSingleBond NonConjugatedSingleBond ConjugatedDoubleBond ConjugatedSingleBond ConjugatedSingleBond ConjugatedSingleBond ConjugatedSingleBond ConjugatedSingleBond ConjugatedDoubleBond ConjugatedSingleBond ConjugatedSingleBond ConjugatedDoubleBond ConjugatedDoubleBond NonConjugatedSingleBond
M  BCL CHI   2   R   7   R  13   S  17   S  35   R
M  BCL DBI - - - - - - - -
M  END
> <ConfClashScore>
0 

> <ConfOneFourInteractionScore>
-0.981627 

> <ConfScore>
-0.2568 

> <ConfScorePBest>
0.0104635 

> <ConfTolerance>
1.2778 

$$$$
ChEBI.****
  PyMOL2.5          3D                             0

 43 45  0  0  0  0  0  0  0  0999 V2000
    1.0863    0.8000    7.0937 N   0  0  0  1  0  0  0  0  0  0  0  0
    0.4564    0.5873    5.8078 C   0  0  0  1  0  0  0  0  0  0  0  0
    1.0893    0.9667    5.0329 H   0  0  0  1  0  0  0  0  0  0  0  0
    0.8565    1.8285    7.9707 C   0  0  0  1  0  0  0  0  0  0  0  0
    1.9467   -0.0415    7.7295 C   0  0  0  1  0  0  0  0  0  0  0  0
    2.3026   -0.9143    7.2900 H   0  0  0  1  0  0  0  0  0  0  0  0
   -0.9155    1.2666    5.7623 C   0  0  0  1  0  0  0  0  0  0  0  0
   -1.3063    1.4087    6.7482 H   0  0  0  1  0  0  0  0  0  0  0  0
    0.1875   -0.8177    5.6008 O   0  0  0  1  0  0  0  0  0  0  0  0
    1.6108    1.5236    9.1117 C   0  0  0  1  0  0  0  0  0  0  0  0
    0.0715    2.8923    7.7950 N   0  0  0  1  0  0  0  0  0  0  0  0
    2.2915    0.3294    8.9326 N   0  0  0  1  0  0  0  0  0  0  0  0
   -1.7563    0.2892    4.9836 C   0  0  0  1  0  0  0  0  0  0  0  0
   -1.6472    0.4403    3.9300 H   0  0  0  1  0  0  0  0  0  0  0  0
   -0.8416    2.5261    5.0925 O   0  0  0  1  0  0  0  0  0  0  0  0
   -0.8872    2.3876    4.1436 H   0  0  0  1  0  0  0  0  0  0  0  0
   -1.1787   -1.0679    5.4110 C   0  0  0  1  0  0  0  0  0  0  0  0
   -1.3271   -1.8009    4.6458 H   0  0  0  1  0  0  0  0  0  0  0  0
    1.5154    2.4391   10.1557 C   0  0  0  1  0  0  0  0  0  0  0  0
    0.0813    3.6817    8.8621 C   0  0  0  1  0  0  0  0  0  0  0  0
   -0.5072    4.5366    8.7946 H   0  0  0  1  0  0  0  0  0  0  0  0
   -3.1571    0.3991    5.3463 O   0  0  0  1  0  0  0  0  0  0  0  0
   -1.8044   -1.5309    6.6646 C   0  0  0  1  0  0  0  0  0  0  0  0
   -2.8455   -1.7092    6.4938 H   0  0  0  1  0  0  0  0  0  0  0  0
   -1.6896   -0.7769    7.4151 H   0  0  0  1  0  0  0  0  0  0  0  0
    0.7482    3.5257   10.0166 N   0  0  0  1  0  0  0  0  0  0  0  0
    2.1775    2.2876   11.3454 N   0  0  0  1  0  0  0  0  0  0  0  0
    2.0734    2.9578   12.0528 H   0  0  0  1  0  0  0  0  0  0  0  0
    2.7553    1.5092   11.4890 H   0  0  0  1  0  0  0  0  0  0  0  0
   -4.2022    1.2536    4.4150 P   0  0  0  1  0  0  0  0  0  0  0  0
   -1.1797   -2.7544    7.1191 O   0  0  0  1  0  0  0  0  0  0  0  0
   -4.3376    0.6600    3.0660 O   0  0  0  1  0  0  0  0  0  0  0  0
   -3.5705    2.7317    4.2140 O   0  5  0  1  0  0  0  0  0  0  0  0
   -5.5782    1.3343    5.2660 O   0  5  0  1  0  0  0  0  0  0  0  0
   -1.5036   -3.2830    8.6237 P   0  0  0  1  0  0  0  0  0  0  0  0
   -0.6587   -4.6544    8.7599 O   0  0  0  1  0  0  0  0  0  0  0  0
   -2.9244   -3.6808    8.7671 O   0  0  0  0  0  0  0  0  0  0  0  0
   -0.9641   -2.2412    9.4780 O   0  0  0  1  0  0  0  0  0  0  0  0
    0.0253   -5.2074   10.1692 S   0  0  0  1  0  0  0  0  0  0  0  0
    1.4086   -4.7240    9.8963 O   0  0  0  1  0  0  0  0  0  0  0  0
    1.4971   -4.5159    8.9633 H   0  0  0  1  0  0  0  0  0  0  0  0
   -0.6338   -4.6399   11.1947 O   0  0  0  1  0  0  0  0  0  0  0  0
    0.0659   -6.6087    9.9434 O   0  0  0  1  0  0  0  0  0  0  0  0
  1  2  1  0  0  0  0
  1  4  1  0  0  0  0
  1  5  1  0  0  0  0
  2  3  1  0  0  0  0
  2  7  1  0  0  0  0
  2  9  1  0  0  0  0
  4 10  2  0  0  0  0
  4 11  1  0  0  0  0
  5  6  1  0  0  0  0
  5 12  2  0  0  0  0
  7  8  1  0  0  0  0
  7 13  1  0  0  0  0
  7 15  1  0  0  0  0
  9 17  1  0  0  0  0
 10 12  1  0  0  0  0
 10 19  1  0  0  0  0
 11 20  2  0  0  0  0
 13 14  1  0  0  0  0
 13 17  1  0  0  0  0
 13 22  1  0  0  0  0
 15 16  1  0  0  0  0
 17 18  1  0  0  0  0
 17 23  1  0  0  0  0
 19 26  2  0  0  0  0
 19 27  1  0  0  0  0
 20 21  1  0  0  0  0
 20 26  1  0  0  0  0
 22 30  1  0  0  0  0
 23 24  1  0  0  0  0
 23 25  1  0  0  0  0
 23 31  1  0  0  0  0
 27 28  1  0  0  0  0
 27 29  1  0  0  0  0
 30 32  2  0  0  0  0
 30 33  1  0  0  0  0
 30 34  1  0  0  0  0
 31 35  1  0  0  0  0
 35 36  1  0  0  0  0
 35 37  1  0  0  0  0
 35 38  2  0  0  0  0
 36 39  1  0  0  0  0
 39 40  1  0  0  0  0
 39 42  2  0  0  0  0
 39 43  2  0  0  0  0
 40 41  1  0  0  0  0
M  BCL ATM N_TrTrTrPi2 C_TeTeTeTe H_S C_TrTrTrPi C_TrTrTrPi H_S C_TeTeTeTe H_S O_Te2Te2TeTe C_TrTrTrPi N_Tr2TrTrPi N_Tr2TrTrPi C_TeTeTeTe H_S O_Te2Te2TeTe H_S C_TeTeTeTe H_S C_TrTrTrPi C_TrTrTrPi H_S O_Tr2TrTrPi2 C_TeTeTeTe H_S H_S N_Tr2TrTrPi N_TrTrTrPi2 H_S H_S P_TeTeTeTePi O_Tr2TrTrPi2 O_Tr2Tr2TrPi O_Te2Te2Te2Te O_Te2Te2Te2Te P_TeTeTeTePi O_Tr2TrTrPi2 O_Te2Te2TeTe O_Tr2Tr2TrPi S_TeTeTeTePiPi O_Te2Te2TeTe H_S O_Tr2Tr2TrPi O_Tr2Tr2TrPi
M  BCL BND NonConjugatedSingleBond AromaticSingleBond AromaticSingleBond NonConjugatedSingleBond NonConjugatedSingleBondInRing NonConjugatedSingleBondInRing AromaticDoubleBond AromaticSingleBond NonConjugatedSingleBond AromaticDoubleBond NonConjugatedSingleBond NonConjugatedSingleBondInRing NonConjugatedSingleBond NonConjugatedSingleBondInRing AromaticSingleBond AromaticSingleBond AromaticDoubleBond NonConjugatedSingleBond NonConjugatedSingleBondInRing NonConjugatedSingleBond NonConjugatedSingleBond NonConjugatedSingleBond NonConjugatedSingleBond AromaticDoubleBond ConjugatedSingleBond NonConjugatedSingleBond AromaticSingleBond ConjugatedSingleBond NonConjugatedSingleBond NonConjugatedSingleBond NonConjugatedSingleBond NonConjugatedSingleBond NonConjugatedSingleBond ConjugatedDoubleBond ConjugatedSingleBond ConjugatedSingleBond ConjugatedSingleBond ConjugatedSingleBond ConjugatedSingleBond ConjugatedDoubleBond ConjugatedSingleBond ConjugatedSingleBond ConjugatedDoubleBond ConjugatedDoubleBond NonConjugatedSingleBond
M  BCL CHI   2   R   7   R  13   S  17   S  35   R
M  BCL DBI - - - - - - - -
M  END
> <ConfClashScore>
0 

> <ConfOneFourInteractionScore>
-0.97503 

> <ConfScore>
-0.255723 

> <ConfScorePBest>
0.0103605 

> <ConfTolerance>
1.14547 

$$$$
ChEBI.****
  PyMOL2.5          3D                             0

 43 45  0  0  0  0  0  0  0  0999 V2000
    1.0681    0.7892    7.1039 N   0  0  0  1  0  0  0  0  0  0  0  0
    0.4927    0.6254    5.7561 C   0  0  0  1  0  0  0  0  0  0  0  0
    0.7638   -0.3334    5.3662 H   0  0  0  1  0  0  0  0  0  0  0  0
    0.8470    1.8224    7.9776 C   0  0  0  1  0  0  0  0  0  0  0  0
    1.9285   -0.0530    7.7390 C   0  0  0  1  0  0  0  0  0  0  0  0
    2.2785   -0.9291    7.3014 H   0  0  0  1  0  0  0  0  0  0  0  0
    0.9684    1.7470    4.8216 C   0  0  0  1  0  0  0  0  0  0  0  0
    1.0874    2.6678    5.3535 H   0  0  0  1  0  0  0  0  0  0  0  0
   -0.9010    0.7716    5.7901 O   0  0  0  1  0  0  0  0  0  0  0  0
    1.6061    1.5196    9.1160 C   0  0  0  1  0  0  0  0  0  0  0  0
    0.0653    2.8886    7.8013 N   0  0  0  1  0  0  0  0  0  0  0  0
    2.2810    0.3219    8.9386 N   0  0  0  1  0  0  0  0  0  0  0  0
   -0.1519    1.8398    3.8192 C   0  0  0  1  0  0  0  0  0  0  0  0
   -0.0227    1.1267    3.0320 H   0  0  0  1  0  0  0  0  0  0  0  0
    2.2001    1.4006    4.1866 O   0  0  0  1  0  0  0  0  0  0  0  0
    2.8838    2.0188    4.4548 H   0  0  0  1  0  0  0  0  0  0  0  0
   -1.3945    1.5170    4.6543 C   0  0  0  1  0  0  0  0  0  0  0  0
   -2.0843    0.9264    4.0884 H   0  0  0  1  0  0  0  0  0  0  0  0
    1.5198    2.4400   10.1563 C   0  0  0  1  0  0  0  0  0  0  0  0
    0.0839    3.6827    8.8648 C   0  0  0  1  0  0  0  0  0  0  0  0
   -0.5015    4.5396    8.7966 H   0  0  0  1  0  0  0  0  0  0  0  0
   -0.2359    3.1677    3.2577 O   0  0  0  1  0  0  0  0  0  0  0  0
   -2.0574    2.7585    5.0980 C   0  0  0  1  0  0  0  0  0  0  0  0
   -1.3979    3.2981    5.7452 H   0  0  0  1  0  0  0  0  0  0  0  0
   -2.9532    2.5097    5.6276 H   0  0  0  1  0  0  0  0  0  0  0  0
    0.7562    3.5290   10.0165 N   0  0  0  1  0  0  0  0  0  0  0  0
    2.1876    2.2911   11.3432 N   0  0  0  1  0  0  0  0  0  0  0  0
    2.6100    1.4347   11.5638 H   0  0  0  1  0  0  0  0  0  0  0  0
    2.2430    3.0410   11.9717 H   0  0  0  1  0  0  0  0  0  0  0  0
   -0.0366    3.3508    1.6402 P   0  0  0  1  0  0  0  0  0  0  0  0
   -2.3914    3.5872    3.9598 O   0  0  0  1  0  0  0  0  0  0  0  0
   -1.1021    2.6218    0.9165 O   0  0  0  1  0  0  0  0  0  0  0  0
    1.4894    2.9114    1.3198 O   0  5  0  1  0  0  0  0  0  0  0  0
    0.1190    4.9417    1.3772 O   0  5  0  1  0  0  0  0  0  0  0  0
   -3.2776    4.8760    4.1326 P   0  0  0  1  0  0  0  0  0  0  0  0
   -4.6844    4.2541    4.6461 O   0  0  0  1  0  0  0  0  0  0  0  0
   -3.5149    5.5066    2.7869 O   0  0  0  0  0  0  0  0  0  0  0  0
   -2.6109    5.6981    5.1702 O   0  0  0  1  0  0  0  0  0  0  0  0
   -6.1413    4.6450    4.0455 S   0  0  0  1  0  0  0  0  0  0  0  0
   -7.0806    3.8029    4.7598 O   0  0  0  1  0  0  0  0  0  0  0  0
   -6.6166    3.3126    5.4423 H   0  0  0  1  0  0  0  0  0  0  0  0
   -6.2977    6.0507    4.3379 O   0  0  0  1  0  0  0  0  0  0  0  0
   -5.9854    4.3309    2.6525 O   0  0  0  1  0  0  0  0  0  0  0  0
  1  2  1  0  0  0  0
  1  4  1  0  0  0  0
  1  5  1  0  0  0  0
  2  3  1  0  0  0  0
  2  7  1  0  0  0  0
  2  9  1  0  0  0  0
  4 10  2  0  0  0  0
  4 11  1  0  0  0  0
  5  6  1  0  0  0  0
  5 12  2  0  0  0  0
  7  8  1  0  0  0  0
  7 13  1  0  0  0  0
  7 15  1  0  0  0  0
  9 17  1  0  0  0  0
 10 12  1  0  0  0  0
 10 19  1  0  0  0  0
 11 20  2  0  0  0  0
 13 14  1  0  0  0  0
 13 17  1  0  0  0  0
 13 22  1  0  0  0  0
 15 16  1  0  0  0  0
 17 18  1  0  0  0  0
 17 23  1  0  0  0  0
 19 26  2  0  0  0  0
 19 27  1  0  0  0  0
 20 21  1  0  0  0  0
 20 26  1  0  0  0  0
 22 30  1  0  0  0  0
 23 24  1  0  0  0  0
 23 25  1  0  0  0  0
 23 31  1  0  0  0  0
 27 28  1  0  0  0  0
 27 29  1  0  0  0  0
 30 32  2  0  0  0  0
 30 33  1  0  0  0  0
 30 34  1  0  0  0  0
 31 35  1  0  0  0  0
 35 36  1  0  0  0  0
 35 37  1  0  0  0  0
 35 38  2  0  0  0  0
 36 39  1  0  0  0  0
 39 40  1  0  0  0  0
 39 42  2  0  0  0  0
 39 43  2  0  0  0  0
 40 41  1  0  0  0  0
M  BCL ATM N_TrTrTrPi2 C_TeTeTeTe H_S C_TrTrTrPi C_TrTrTrPi H_S C_TeTeTeTe H_S O_Te2Te2TeTe C_TrTrTrPi N_Tr2TrTrPi N_Tr2TrTrPi C_TeTeTeTe H_S O_Te2Te2TeTe H_S C_TeTeTeTe H_S C_TrTrTrPi C_TrTrTrPi H_S O_Tr2TrTrPi2 C_TeTeTeTe H_S H_S N_Tr2TrTrPi N_TrTrTrPi2 H_S H_S P_TeTeTeTePi O_Tr2TrTrPi2 O_Tr2Tr2TrPi O_Te2Te2Te2Te O_Te2Te2Te2Te P_TeTeTeTePi O_Tr2TrTrPi2 O_Te2Te2TeTe O_Tr2Tr2TrPi S_TeTeTeTePiPi O_Te2Te2TeTe H_S O_Tr2Tr2TrPi O_Tr2Tr2TrPi
M  BCL BND NonConjugatedSingleBond AromaticSingleBond AromaticSingleBond NonConjugatedSingleBond NonConjugatedSingleBondInRing NonConjugatedSingleBondInRing AromaticDoubleBond AromaticSingleBond NonConjugatedSingleBond AromaticDoubleBond NonConjugatedSingleBond NonConjugatedSingleBondInRing NonConjugatedSingleBond NonConjugatedSingleBondInRing AromaticSingleBond AromaticSingleBond AromaticDoubleBond NonConjugatedSingleBond NonConjugatedSingleBondInRing NonConjugatedSingleBond NonConjugatedSingleBond NonConjugatedSingleBond NonConjugatedSingleBond AromaticDoubleBond ConjugatedSingleBond NonConjugatedSingleBond AromaticSingleBond ConjugatedSingleBond NonConjugatedSingleBond NonConjugatedSingleBond NonConjugatedSingleBond NonConjugatedSingleBond NonConjugatedSingleBond ConjugatedDoubleBond ConjugatedSingleBond ConjugatedSingleBond ConjugatedSingleBond ConjugatedSingleBond ConjugatedSingleBond ConjugatedDoubleBond ConjugatedSingleBond ConjugatedSingleBond ConjugatedDoubleBond ConjugatedDoubleBond NonConjugatedSingleBond
M  BCL CHI   2   R   7   R  13   S  17   S  35   R
M  BCL DBI - - - - - - - -
M  END
> <ConfClashScore>
0 

> <ConfOneFourInteractionScore>
-0.981627 

> <ConfScore>
-0.254839 

> <ConfScorePBest>
0.0102575 

> <ConfTolerance>
1.19913 

$$$$
ChEBI.****
  PyMOL2.5          3D                             0

 43 45  0  0  0  0  0  0  0  0999 V2000
    1.0678    0.7852    7.0908 N   0  0  0  1  0  0  0  0  0  0  0  0
    0.4891    0.6274    5.7462 C   0  0  0  1  0  0  0  0  0  0  0  0
    0.9612    1.3108    5.0717 H   0  0  0  1  0  0  0  0  0  0  0  0
    0.8480    1.8137    7.9703 C   0  0  0  1  0  0  0  0  0  0  0  0
    1.9315   -0.0588    7.7188 C   0  0  0  1  0  0  0  0  0  0  0  0
    2.2815   -0.9322    7.2758 H   0  0  0  1  0  0  0  0  0  0  0  0
   -1.0026    0.8623    5.7806 C   0  0  0  1  0  0  0  0  0  0  0  0
   -1.4280    0.5168    6.6996 H   0  0  0  1  0  0  0  0  0  0  0  0
    0.6462   -0.7269    5.2848 O   0  0  0  1  0  0  0  0  0  0  0  0
    1.6113    1.5064    9.1047 C   0  0  0  1  0  0  0  0  0  0  0  0
    0.0641    2.8796    7.8019 N   0  0  0  1  0  0  0  0  0  0  0  0
    2.2875    0.3106    8.9191 N   0  0  0  1  0  0  0  0  0  0  0  0
   -1.4848    0.0390    4.6117 C   0  0  0  1  0  0  0  0  0  0  0  0
   -1.3997    0.5869    3.6966 H   0  0  0  1  0  0  0  0  0  0  0  0
   -1.3124    2.2452    5.6019 O   0  0  0  1  0  0  0  0  0  0  0  0
   -0.5033    2.7610    5.6294 H   0  0  0  1  0  0  0  0  0  0  0  0
   -0.5545   -1.1556    4.6162 C   0  0  0  1  0  0  0  0  0  0  0  0
   -0.3332   -1.4572    3.6137 H   0  0  0  1  0  0  0  0  0  0  0  0
    1.5270    2.4215   10.1499 C   0  0  0  1  0  0  0  0  0  0  0  0
    0.0849    3.6684    8.8693 C   0  0  0  1  0  0  0  0  0  0  0  0
   -0.5020    4.5247    8.8073 H   0  0  0  1  0  0  0  0  0  0  0  0
   -2.8625   -0.3753    4.8019 O   0  0  0  1  0  0  0  0  0  0  0  0
   -1.1785   -2.2948    5.3532 C   0  0  0  1  0  0  0  0  0  0  0  0
   -1.5765   -1.9515    6.2852 H   0  0  0  1  0  0  0  0  0  0  0  0
   -0.4478   -3.0550    5.5352 H   0  0  0  1  0  0  0  0  0  0  0  0
    0.7613    3.5100   10.0180 N   0  0  0  1  0  0  0  0  0  0  0  0
    2.1838    2.3195   11.3714 N   0  0  0  1  0  0  0  0  0  0  0  0
    2.0647    3.0151   12.0514 H   0  0  0  1  0  0  0  0  0  0  0  0
    2.7658    1.5520   11.5523 H   0  0  0  1  0  0  0  0  0  0  0  0
   -4.0617    0.2383    3.8666 P   0  0  0  1  0  0  0  0  0  0  0  0
   -2.2430   -2.8221    4.5270 O   0  0  0  1  0  0  0  0  0  0  0  0
   -3.7468    1.6188    3.4360 O   0  0  0  1  0  0  0  0  0  0  0  0
   -5.4353    0.0494    4.7044 O   0  5  0  1  0  0  0  0  0  0  0  0
   -4.1059   -0.6436    2.5084 O   0  5  0  1  0  0  0  0  0  0  0  0
   -3.0529   -4.1304    4.8910 P   0  0  0  1  0  0  0  0  0  0  0  0
   -4.0258   -4.3656    3.5467 O   0  0  0  1  0  0  0  0  0  0  0  0
   -3.9591   -3.7290    5.9866 O   0  0  0  0  0  0  0  0  0  0  0  0
   -2.1461   -5.2774    5.0827 O   0  0  0  1  0  0  0  0  0  0  0  0
   -5.2526   -5.2522    3.1247 S   0  0  0  1  0  0  0  0  0  0  0  0
   -6.3227   -4.3136    3.4809 O   0  0  0  1  0  0  0  0  0  0  0  0
   -5.9373   -3.4894    3.7871 H   0  0  0  1  0  0  0  0  0  0  0  0
   -5.2559   -5.4913    1.7460 O   0  0  0  1  0  0  0  0  0  0  0  0
   -5.2634   -6.3284    4.0519 O   0  0  0  1  0  0  0  0  0  0  0  0
  1  2  1  0  0  0  0
  1  4  1  0  0  0  0
  1  5  1  0  0  0  0
  2  3  1  0  0  0  0
  2  7  1  0  0  0  0
  2  9  1  0  0  0  0
  4 10  2  0  0  0  0
  4 11  1  0  0  0  0
  5  6  1  0  0  0  0
  5 12  2  0  0  0  0
  7  8  1  0  0  0  0
  7 13  1  0  0  0  0
  7 15  1  0  0  0  0
  9 17  1  0  0  0  0
 10 12  1  0  0  0  0
 10 19  1  0  0  0  0
 11 20  2  0  0  0  0
 13 14  1  0  0  0  0
 13 17  1  0  0  0  0
 13 22  1  0  0  0  0
 15 16  1  0  0  0  0
 17 18  1  0  0  0  0
 17 23  1  0  0  0  0
 19 26  2  0  0  0  0
 19 27  1  0  0  0  0
 20 21  1  0  0  0  0
 20 26  1  0  0  0  0
 22 30  1  0  0  0  0
 23 24  1  0  0  0  0
 23 25  1  0  0  0  0
 23 31  1  0  0  0  0
 27 28  1  0  0  0  0
 27 29  1  0  0  0  0
 30 32  2  0  0  0  0
 30 33  1  0  0  0  0
 30 34  1  0  0  0  0
 31 35  1  0  0  0  0
 35 36  1  0  0  0  0
 35 37  1  0  0  0  0
 35 38  2  0  0  0  0
 36 39  1  0  0  0  0
 39 40  1  0  0  0  0
 39 42  2  0  0  0  0
 39 43  2  0  0  0  0
 40 41  1  0  0  0  0
M  BCL ATM N_TrTrTrPi2 C_TeTeTeTe H_S C_TrTrTrPi C_TrTrTrPi H_S C_TeTeTeTe H_S O_Te2Te2TeTe C_TrTrTrPi N_Tr2TrTrPi N_Tr2TrTrPi C_TeTeTeTe H_S O_Te2Te2TeTe H_S C_TeTeTeTe H_S C_TrTrTrPi C_TrTrTrPi H_S O_Tr2TrTrPi2 C_TeTeTeTe H_S H_S N_Tr2TrTrPi N_TrTrTrPi2 H_S H_S P_TeTeTeTePi O_Tr2TrTrPi2 O_Tr2Tr2TrPi O_Te2Te2Te2Te O_Te2Te2Te2Te P_TeTeTeTePi O_Tr2TrTrPi2 O_Te2Te2TeTe O_Tr2Tr2TrPi S_TeTeTeTePiPi O_Te2Te2TeTe H_S O_Tr2Tr2TrPi O_Tr2Tr2TrPi
M  BCL BND NonConjugatedSingleBond AromaticSingleBond AromaticSingleBond NonConjugatedSingleBond NonConjugatedSingleBondInRing NonConjugatedSingleBondInRing AromaticDoubleBond AromaticSingleBond NonConjugatedSingleBond AromaticDoubleBond NonConjugatedSingleBond NonConjugatedSingleBondInRing NonConjugatedSingleBond NonConjugatedSingleBondInRing AromaticSingleBond AromaticSingleBond AromaticDoubleBond NonConjugatedSingleBond NonConjugatedSingleBondInRing NonConjugatedSingleBond NonConjugatedSingleBond NonConjugatedSingleBond NonConjugatedSingleBond AromaticDoubleBond ConjugatedSingleBond NonConjugatedSingleBond AromaticSingleBond ConjugatedSingleBond NonConjugatedSingleBond NonConjugatedSingleBond NonConjugatedSingleBond NonConjugatedSingleBond NonConjugatedSingleBond ConjugatedDoubleBond ConjugatedSingleBond ConjugatedSingleBond ConjugatedSingleBond ConjugatedSingleBond ConjugatedSingleBond ConjugatedDoubleBond ConjugatedSingleBond ConjugatedSingleBond ConjugatedDoubleBond ConjugatedDoubleBond NonConjugatedSingleBond
M  BCL CHI   2   R   7   R  13   S  17   S  35   R
M  BCL DBI - - - - - - - -
M  END
> <ConfClashScore>
0 

> <ConfOneFourInteractionScore>
-0.981777 

> <ConfScore>
-0.254644 

> <ConfScorePBest>
0.0101545 

> <ConfTolerance>
0.978143 

$$$$
ChEBI.****
  PyMOL2.5          3D                             0

 43 45  0  0  0  0  0  0  0  0999 V2000
    1.0630    0.7926    7.1247 N   0  0  0  1  0  0  0  0  0  0  0  0
    0.5231    0.5646    5.7700 C   0  0  0  1  0  0  0  0  0  0  0  0
    0.4121    1.5025    5.2671 H   0  0  0  1  0  0  0  0  0  0  0  0
    0.8402    1.8378    7.9835 C   0  0  0  1  0  0  0  0  0  0  0  0
    1.9165   -0.0442    7.7759 C   0  0  0  1  0  0  0  0  0  0  0  0
    2.2662   -0.9271    7.3518 H   0  0  0  1  0  0  0  0  0  0  0  0
   -0.8217   -0.1609    5.8474 C   0  0  0  1  0  0  0  0  0  0  0  0
   -0.8745   -0.7998    6.7041 H   0  0  0  1  0  0  0  0  0  0  0  0
    1.3894   -0.3004    5.0268 O   0  0  0  1  0  0  0  0  0  0  0  0
    1.5912    1.5471    9.1304 C   0  0  0  1  0  0  0  0  0  0  0  0
    0.0634    2.9043    7.7886 N   0  0  0  1  0  0  0  0  0  0  0  0
    2.2630    0.3449    8.9727 N   0  0  0  1  0  0  0  0  0  0  0  0
   -0.7944   -0.9618    4.5540 C   0  0  0  1  0  0  0  0  0  0  0  0
   -1.1665   -0.3737    3.7412 H   0  0  0  1  0  0  0  0  0  0  0  0
   -1.9135    0.7597    5.8712 O   0  0  0  1  0  0  0  0  0  0  0  0
   -2.4585    0.5905    6.6432 H   0  0  0  1  0  0  0  0  0  0  0  0
    0.6165   -1.3011    4.3389 C   0  0  0  1  0  0  0  0  0  0  0  0
    0.8439   -1.2889    3.2934 H   0  0  0  1  0  0  0  0  0  0  0  0
    1.5017    2.4812   10.1582 C   0  0  0  1  0  0  0  0  0  0  0  0
    0.0782    3.7120    8.8419 C   0  0  0  1  0  0  0  0  0  0  0  0
   -0.5038    4.5700    8.7590 H   0  0  0  1  0  0  0  0  0  0  0  0
   -1.5926   -2.1666    4.6853 O   0  0  0  1  0  0  0  0  0  0  0  0
    0.9139   -2.6636    4.9014 C   0  0  0  1  0  0  0  0  0  0  0  0
    0.3042   -3.4043    4.4276 H   0  0  0  1  0  0  0  0  0  0  0  0
    0.7382   -2.6782    5.9568 H   0  0  0  1  0  0  0  0  0  0  0  0
    0.7429    3.5710    9.9996 N   0  0  0  1  0  0  0  0  0  0  0  0
    2.2066    2.2509   11.3214 N   0  0  0  1  0  0  0  0  0  0  0  0
    2.7904    1.4670   11.3936 H   0  0  0  1  0  0  0  0  0  0  0  0
    2.1236    2.8711   12.0756 H   0  0  0  1  0  0  0  0  0  0  0  0
   -2.9918   -2.3435    3.8484 P   0  0  0  1  0  0  0  0  0  0  0  0
    2.3124   -2.9051    4.6192 O   0  0  0  1  0  0  0  0  0  0  0  0
   -3.6841   -1.0357    3.8765 O   0  0  0  1  0  0  0  0  0  0  0  0
   -3.8555   -3.6119    4.3677 O   0  5  0  1  0  0  0  0  0  0  0  0
   -2.4127   -2.6299    2.3628 O   0  5  0  1  0  0  0  0  0  0  0  0
    3.2202   -3.7020    5.6409 P   0  0  0  1  0  0  0  0  0  0  0  0
    4.6972   -3.3966    5.0453 O   0  0  0  1  0  0  0  0  0  0  0  0
    2.8446   -5.1622    5.6732 O   0  0  0  0  0  0  0  0  0  0  0  0
    3.0922   -2.9613    6.9009 O   0  0  0  1  0  0  0  0  0  0  0  0
    5.3238   -1.9439    4.8792 S   0  0  0  1  0  0  0  0  0  0  0  0
    6.6318   -2.3096    5.2910 O   0  0  0  1  0  0  0  0  0  0  0  0
    7.0772   -2.7672    4.5742 H   0  0  0  1  0  0  0  0  0  0  0  0
    5.2026   -1.5942    3.5135 O   0  0  0  1  0  0  0  0  0  0  0  0
    4.6817   -1.0482    5.7691 O   0  0  0  1  0  0  0  0  0  0  0  0
  1  2  1  0  0  0  0
  1  4  1  0  0  0  0
  1  5  1  0  0  0  0
  2  3  1  0  0  0  0
  2  7  1  0  0  0  0
  2  9  1  0  0  0  0
  4 10  2  0  0  0  0
  4 11  1  0  0  0  0
  5  6  1  0  0  0  0
  5 12  2  0  0  0  0
  7  8  1  0  0  0  0
  7 13  1  0  0  0  0
  7 15  1  0  0  0  0
  9 17  1  0  0  0  0
 10 12  1  0  0  0  0
 10 19  1  0  0  0  0
 11 20  2  0  0  0  0
 13 14  1  0  0  0  0
 13 17  1  0  0  0  0
 13 22  1  0  0  0  0
 15 16  1  0  0  0  0
 17 18  1  0  0  0  0
 17 23  1  0  0  0  0
 19 26  2  0  0  0  0
 19 27  1  0  0  0  0
 20 21  1  0  0  0  0
 20 26  1  0  0  0  0
 22 30  1  0  0  0  0
 23 24  1  0  0  0  0
 23 25  1  0  0  0  0
 23 31  1  0  0  0  0
 27 28  1  0  0  0  0
 27 29  1  0  0  0  0
 30 32  2  0  0  0  0
 30 33  1  0  0  0  0
 30 34  1  0  0  0  0
 31 35  1  0  0  0  0
 35 36  1  0  0  0  0
 35 37  1  0  0  0  0
 35 38  2  0  0  0  0
 36 39  1  0  0  0  0
 39 40  1  0  0  0  0
 39 42  2  0  0  0  0
 39 43  2  0  0  0  0
 40 41  1  0  0  0  0
M  BCL ATM N_TrTrTrPi2 C_TeTeTeTe H_S C_TrTrTrPi C_TrTrTrPi H_S C_TeTeTeTe H_S O_Te2Te2TeTe C_TrTrTrPi N_Tr2TrTrPi N_Tr2TrTrPi C_TeTeTeTe H_S O_Te2Te2TeTe H_S C_TeTeTeTe H_S C_TrTrTrPi C_TrTrTrPi H_S O_Tr2TrTrPi2 C_TeTeTeTe H_S H_S N_Tr2TrTrPi N_TrTrTrPi2 H_S H_S P_TeTeTeTePi O_Tr2TrTrPi2 O_Tr2Tr2TrPi O_Te2Te2Te2Te O_Te2Te2Te2Te P_TeTeTeTePi O_Tr2TrTrPi2 O_Te2Te2TeTe O_Tr2Tr2TrPi S_TeTeTeTePiPi O_Te2Te2TeTe H_S O_Tr2Tr2TrPi O_Tr2Tr2TrPi
M  BCL BND NonConjugatedSingleBond AromaticSingleBond AromaticSingleBond NonConjugatedSingleBond NonConjugatedSingleBondInRing NonConjugatedSingleBondInRing AromaticDoubleBond AromaticSingleBond NonConjugatedSingleBond AromaticDoubleBond NonConjugatedSingleBond NonConjugatedSingleBondInRing NonConjugatedSingleBond NonConjugatedSingleBondInRing AromaticSingleBond AromaticSingleBond AromaticDoubleBond NonConjugatedSingleBond NonConjugatedSingleBondInRing NonConjugatedSingleBond NonConjugatedSingleBond NonConjugatedSingleBond NonConjugatedSingleBond AromaticDoubleBond ConjugatedSingleBond NonConjugatedSingleBond AromaticSingleBond ConjugatedSingleBond NonConjugatedSingleBond NonConjugatedSingleBond NonConjugatedSingleBond NonConjugatedSingleBond NonConjugatedSingleBond ConjugatedDoubleBond ConjugatedSingleBond ConjugatedSingleBond ConjugatedSingleBond ConjugatedSingleBond ConjugatedSingleBond ConjugatedDoubleBond ConjugatedSingleBond ConjugatedSingleBond ConjugatedDoubleBond ConjugatedDoubleBond NonConjugatedSingleBond
M  BCL CHI   2   R   7   R  13   S  17   S  35   R
M  BCL DBI - - - - - - - -
M  END
> <ConfClashScore>
0 

> <ConfOneFourInteractionScore>
-0.979765 

> <ConfScore>
-0.254279 

> <ConfScorePBest>
0.0100515 

> <ConfTolerance>
1.16321 

$$$$
ChEBI.****
  PyMOL2.5          3D                             0

 43 45  0  0  0  0  0  0  0  0999 V2000
    1.0250    0.7618    7.1229 N   0  0  0  1  0  0  0  0  0  0  0  0
    0.6206    0.7108    5.7033 C   0  0  0  1  0  0  0  0  0  0  0  0
   -0.4470    0.6870    5.6367 H   0  0  0  1  0  0  0  0  0  0  0  0
    0.8207    1.8058    7.9877 C   0  0  0  1  0  0  0  0  0  0  0  0
    1.8889   -0.0780    7.7563 C   0  0  0  1  0  0  0  0  0  0  0  0
    2.2287   -0.9608    7.3242 H   0  0  0  1  0  0  0  0  0  0  0  0
    1.2297   -0.5141    5.0144 C   0  0  0  1  0  0  0  0  0  0  0  0
    2.1014   -0.8528    5.5342 H   0  0  0  1  0  0  0  0  0  0  0  0
    1.1486    1.8480    4.9841 O   0  0  0  1  0  0  0  0  0  0  0  0
    1.5926    1.5115    9.1196 C   0  0  0  1  0  0  0  0  0  0  0  0
    0.0426    2.8743    7.8095 N   0  0  0  1  0  0  0  0  0  0  0  0
    2.2588    0.3082    8.9471 N   0  0  0  1  0  0  0  0  0  0  0  0
    1.5841    0.0036    3.6451 C   0  0  0  1  0  0  0  0  0  0  0  0
    0.7433   -0.0441    2.9851 H   0  0  0  1  0  0  0  0  0  0  0  0
    0.2812   -1.5787    4.9299 O   0  0  0  1  0  0  0  0  0  0  0  0
    0.0930   -1.7678    4.0077 H   0  0  0  1  0  0  0  0  0  0  0  0
    1.9841    1.4589    3.9279 C   0  0  0  1  0  0  0  0  0  0  0  0
    1.8172    2.0720    3.0670 H   0  0  0  1  0  0  0  0  0  0  0  0
    1.5246    2.4438   10.1507 C   0  0  0  1  0  0  0  0  0  0  0  0
    0.0790    3.6800    8.8637 C   0  0  0  1  0  0  0  0  0  0  0  0
   -0.5026    4.5393    8.7934 H   0  0  0  1  0  0  0  0  0  0  0  0
    2.6908   -0.7416    3.0744 O   0  0  0  1  0  0  0  0  0  0  0  0
    3.4198    1.5443    4.3300 C   0  0  0  1  0  0  0  0  0  0  0  0
    4.0435    1.2113    3.5270 H   0  0  0  1  0  0  0  0  0  0  0  0
    3.5933    0.9360    5.1930 H   0  0  0  1  0  0  0  0  0  0  0  0
    0.7652    3.5355   10.0084 N   0  0  0  1  0  0  0  0  0  0  0  0
    2.2114    2.3035   11.3387 N   0  0  0  1  0  0  0  0  0  0  0  0
    2.7532    1.5030   11.4999 H   0  0  0  1  0  0  0  0  0  0  0  0
    2.1576    3.0044   12.0216 H   0  0  0  1  0  0  0  0  0  0  0  0
    2.5930   -1.3646    1.5605 P   0  0  0  1  0  0  0  0  0  0  0  0
    3.7085    2.9287    4.6369 O   0  0  0  1  0  0  0  0  0  0  0  0
    3.8645   -2.0145    1.1715 O   0  0  0  1  0  0  0  0  0  0  0  0
    2.0360   -0.1910    0.5927 O   0  5  0  1  0  0  0  0  0  0  0  0
    1.2776   -2.3089    1.5077 O   0  5  0  1  0  0  0  0  0  0  0  0
    5.1493    3.4384    5.1010 P   0  0  0  1  0  0  0  0  0  0  0  0
    4.8855    5.0927    5.1529 O   0  0  0  1  0  0  0  0  0  0  0  0
    6.1845    3.0647    4.0832 O   0  0  0  0  0  0  0  0  0  0  0  0
    5.4204    2.9928    6.5003 O   0  0  0  1  0  0  0  0  0  0  0  0
    5.6579    6.4380    4.7718 S   0  0  0  1  0  0  0  0  0  0  0  0
    5.0262    6.9509    3.5720 O   0  0  0  1  0  0  0  0  0  0  0  0
    5.6612    6.9547    2.8520 H   0  0  0  1  0  0  0  0  0  0  0  0
    5.4968    7.3335    5.8935 O   0  0  0  1  0  0  0  0  0  0  0  0
    6.9988    5.9633    4.5716 O   0  0  0  1  0  0  0  0  0  0  0  0
  1  2  1  0  0  0  0
  1  4  1  0  0  0  0
  1  5  1  0  0  0  0
  2  3  1  0  0  0  0
  2  7  1  0  0  0  0
  2  9  1  0  0  0  0
  4 10  2  0  0  0  0
  4 11  1  0  0  0  0
  5  6  1  0  0  0  0
  5 12  2  0  0  0  0
  7  8  1  0  0  0  0
  7 13  1  0  0  0  0
  7 15  1  0  0  0  0
  9 17  1  0  0  0  0
 10 12  1  0  0  0  0
 10 19  1  0  0  0  0
 11 20  2  0  0  0  0
 13 14  1  0  0  0  0
 13 17  1  0  0  0  0
 13 22  1  0  0  0  0
 15 16  1  0  0  0  0
 17 18  1  0  0  0  0
 17 23  1  0  0  0  0
 19 26  2  0  0  0  0
 19 27  1  0  0  0  0
 20 21  1  0  0  0  0
 20 26  1  0  0  0  0
 22 30  1  0  0  0  0
 23 24  1  0  0  0  0
 23 25  1  0  0  0  0
 23 31  1  0  0  0  0
 27 28  1  0  0  0  0
 27 29  1  0  0  0  0
 30 32  2  0  0  0  0
 30 33  1  0  0  0  0
 30 34  1  0  0  0  0
 31 35  1  0  0  0  0
 35 36  1  0  0  0  0
 35 37  1  0  0  0  0
 35 38  2  0  0  0  0
 36 39  1  0  0  0  0
 39 40  1  0  0  0  0
 39 42  2  0  0  0  0
 39 43  2  0  0  0  0
 40 41  1  0  0  0  0
M  BCL ATM N_TrTrTrPi2 C_TeTeTeTe H_S C_TrTrTrPi C_TrTrTrPi H_S C_TeTeTeTe H_S O_Te2Te2TeTe C_TrTrTrPi N_Tr2TrTrPi N_Tr2TrTrPi C_TeTeTeTe H_S O_Te2Te2TeTe H_S C_TeTeTeTe H_S C_TrTrTrPi C_TrTrTrPi H_S O_Tr2TrTrPi2 C_TeTeTeTe H_S H_S N_Tr2TrTrPi N_TrTrTrPi2 H_S H_S P_TeTeTeTePi O_Tr2TrTrPi2 O_Tr2Tr2TrPi O_Te2Te2Te2Te O_Te2Te2Te2Te P_TeTeTeTePi O_Tr2TrTrPi2 O_Te2Te2TeTe O_Tr2Tr2TrPi S_TeTeTeTePiPi O_Te2Te2TeTe H_S O_Tr2Tr2TrPi O_Tr2Tr2TrPi
M  BCL BND NonConjugatedSingleBond AromaticSingleBond AromaticSingleBond NonConjugatedSingleBond NonConjugatedSingleBondInRing NonConjugatedSingleBondInRing AromaticDoubleBond AromaticSingleBond NonConjugatedSingleBond AromaticDoubleBond NonConjugatedSingleBond NonConjugatedSingleBondInRing NonConjugatedSingleBond NonConjugatedSingleBondInRing AromaticSingleBond AromaticSingleBond AromaticDoubleBond NonConjugatedSingleBond NonConjugatedSingleBondInRing NonConjugatedSingleBond NonConjugatedSingleBond NonConjugatedSingleBond NonConjugatedSingleBond AromaticDoubleBond ConjugatedSingleBond NonConjugatedSingleBond AromaticSingleBond ConjugatedSingleBond NonConjugatedSingleBond NonConjugatedSingleBond NonConjugatedSingleBond NonConjugatedSingleBond NonConjugatedSingleBond ConjugatedDoubleBond ConjugatedSingleBond ConjugatedSingleBond ConjugatedSingleBond ConjugatedSingleBond ConjugatedSingleBond ConjugatedDoubleBond ConjugatedSingleBond ConjugatedSingleBond ConjugatedDoubleBond ConjugatedDoubleBond NonConjugatedSingleBond
M  BCL CHI   2   R   7   R  13   S  17   S  35   R
M  BCL DBI - - - - - - - -
M  END
> <ConfClashScore>
0 

> <ConfOneFourInteractionScore>
-0.977702 

> <ConfScore>
-0.25369 

> <ConfScorePBest>
0.0099485 

> <ConfTolerance>
1.13477 

$$$$
ChEBI.****
  PyMOL2.5          3D                             0

 43 45  0  0  0  0  0  0  0  0999 V2000
    1.0708    0.7874    7.1051 N   0  0  0  1  0  0  0  0  0  0  0  0
    0.4933    0.6207    5.7510 C   0  0  0  1  0  0  0  0  0  0  0  0
   -0.5742    0.6610    5.8105 H   0  0  0  1  0  0  0  0  0  0  0  0
    0.8475    1.8209    7.9779 C   0  0  0  1  0  0  0  0  0  0  0  0
    1.9326   -0.0526    7.7410 C   0  0  0  1  0  0  0  0  0  0  0  0
    2.2844   -0.9284    7.3042 H   0  0  0  1  0  0  0  0  0  0  0  0
    0.9462   -0.6820    5.1326 C   0  0  0  1  0  0  0  0  0  0  0  0
    1.0813   -1.4341    5.8815 H   0  0  0  1  0  0  0  0  0  0  0  0
    0.9997    1.6461    4.8431 O   0  0  0  1  0  0  0  0  0  0  0  0
    1.6069    1.5203    9.1167 C   0  0  0  1  0  0  0  0  0  0  0  0
    0.0639    2.8855    7.8007 N   0  0  0  1  0  0  0  0  0  0  0  0
    2.2842    0.3238    8.9404 N   0  0  0  1  0  0  0  0  0  0  0  0
    2.2831   -0.3194    4.4721 C   0  0  0  1  0  0  0  0  0  0  0  0
    2.4524   -0.9089    3.5954 H   0  0  0  1  0  0  0  0  0  0  0  0
    0.0047   -1.1403    4.1611 O   0  0  0  1  0  0  0  0  0  0  0  0
   -0.5466   -1.8249    4.5471 H   0  0  0  1  0  0  0  0  0  0  0  0
    2.0930    1.1631    4.1145 C   0  0  0  1  0  0  0  0  0  0  0  0
    1.9031    1.2624    3.0662 H   0  0  0  1  0  0  0  0  0  0  0  0
    1.5186    2.4413   10.1564 C   0  0  0  1  0  0  0  0  0  0  0  0
    0.0807    3.6804    8.8636 C   0  0  0  1  0  0  0  0  0  0  0  0
   -0.5064    4.5361    8.7946 H   0  0  0  1  0  0  0  0  0  0  0  0
    3.3861   -0.4967    5.3946 O   0  0  0  1  0  0  0  0  0  0  0  0
    3.3213    1.9327    4.4737 C   0  0  0  1  0  0  0  0  0  0  0  0
    4.1709    1.5175    3.9731 H   0  0  0  1  0  0  0  0  0  0  0  0
    3.4773    1.8969    5.5317 H   0  0  0  1  0  0  0  0  0  0  0  0
    0.7530    3.5288   10.0156 N   0  0  0  1  0  0  0  0  0  0  0  0
    2.1864    2.2946   11.3436 N   0  0  0  1  0  0  0  0  0  0  0  0
    2.1318    2.9955   12.0263 H   0  0  0  1  0  0  0  0  0  0  0  0
    2.7187    1.4888   11.5100 H   0  0  0  1  0  0  0  0  0  0  0  0
    4.7983   -1.1663    4.8977 P   0  0  0  1  0  0  0  0  0  0  0  0
    3.1210    3.3021    4.0512 O   0  0  0  1  0  0  0  0  0  0  0  0
    5.0036   -0.8506    3.4664 O   0  0  0  1  0  0  0  0  0  0  0  0
    4.7695   -2.7455    5.2582 O   0  5  0  1  0  0  0  0  0  0  0  0
    5.9573   -0.4710    5.7908 O   0  5  0  1  0  0  0  0  0  0  0  0
    3.5879    4.5368    4.9889 P   0  0  0  1  0  0  0  0  0  0  0  0
    5.1888    4.3427    5.1589 O   0  0  0  1  0  0  0  0  0  0  0  0
    2.8740    4.3237    6.2723 O   0  0  0  0  0  0  0  0  0  0  0  0
    3.4314    5.8454    4.3105 O   0  0  0  1  0  0  0  0  0  0  0  0
    5.8919    3.5470    6.3696 S   0  0  0  1  0  0  0  0  0  0  0  0
    5.8626    4.5657    7.4003 O   0  0  0  1  0  0  0  0  0  0  0  0
    5.0371    4.5056    7.8868 H   0  0  0  1  0  0  0  0  0  0  0  0
    5.0583    2.4057    6.6564 O   0  0  0  1  0  0  0  0  0  0  0  0
    7.2008    3.1719    5.9225 O   0  0  0  1  0  0  0  0  0  0  0  0
  1  2  1  0  0  0  0
  1  4  1  0  0  0  0
  1  5  1  0  0  0  0
  2  3  1  0  0  0  0
  2  7  1  0  0  0  0
  2  9  1  0  0  0  0
  4 10  2  0  0  0  0
  4 11  1  0  0  0  0
  5  6  1  0  0  0  0
  5 12  2  0  0  0  0
  7  8  1  0  0  0  0
  7 13  1  0  0  0  0
  7 15  1  0  0  0  0
  9 17  1  0  0  0  0
 10 12  1  0  0  0  0
 10 19  1  0  0  0  0
 11 20  2  0  0  0  0
 13 14  1  0  0  0  0
 13 17  1  0  0  0  0
 13 22  1  0  0  0  0
 15 16  1  0  0  0  0
 17 18  1  0  0  0  0
 17 23  1  0  0  0  0
 19 26  2  0  0  0  0
 19 27  1  0  0  0  0
 20 21  1  0  0  0  0
 20 26  1  0  0  0  0
 22 30  1  0  0  0  0
 23 24  1  0  0  0  0
 23 25  1  0  0  0  0
 23 31  1  0  0  0  0
 27 28  1  0  0  0  0
 27 29  1  0  0  0  0
 30 32  2  0  0  0  0
 30 33  1  0  0  0  0
 30 34  1  0  0  0  0
 31 35  1  0  0  0  0
 35 36  1  0  0  0  0
 35 37  1  0  0  0  0
 35 38  2  0  0  0  0
 36 39  1  0  0  0  0
 39 40  1  0  0  0  0
 39 42  2  0  0  0  0
 39 43  2  0  0  0  0
 40 41  1  0  0  0  0
M  BCL ATM N_TrTrTrPi2 C_TeTeTeTe H_S C_TrTrTrPi C_TrTrTrPi H_S C_TeTeTeTe H_S O_Te2Te2TeTe C_TrTrTrPi N_Tr2TrTrPi N_Tr2TrTrPi C_TeTeTeTe H_S O_Te2Te2TeTe H_S C_TeTeTeTe H_S C_TrTrTrPi C_TrTrTrPi H_S O_Tr2TrTrPi2 C_TeTeTeTe H_S H_S N_Tr2TrTrPi N_TrTrTrPi2 H_S H_S P_TeTeTeTePi O_Tr2TrTrPi2 O_Tr2Tr2TrPi O_Te2Te2Te2Te O_Te2Te2Te2Te P_TeTeTeTePi O_Tr2TrTrPi2 O_Te2Te2TeTe O_Tr2Tr2TrPi S_TeTeTeTePiPi O_Te2Te2TeTe H_S O_Tr2Tr2TrPi O_Tr2Tr2TrPi
M  BCL BND NonConjugatedSingleBond AromaticSingleBond AromaticSingleBond NonConjugatedSingleBond NonConjugatedSingleBondInRing NonConjugatedSingleBondInRing AromaticDoubleBond AromaticSingleBond NonConjugatedSingleBond AromaticDoubleBond NonConjugatedSingleBond NonConjugatedSingleBondInRing NonConjugatedSingleBond NonConjugatedSingleBondInRing AromaticSingleBond AromaticSingleBond AromaticDoubleBond NonConjugatedSingleBond NonConjugatedSingleBondInRing NonConjugatedSingleBond NonConjugatedSingleBond NonConjugatedSingleBond NonConjugatedSingleBond AromaticDoubleBond ConjugatedSingleBond NonConjugatedSingleBond AromaticSingleBond ConjugatedSingleBond NonConjugatedSingleBond NonConjugatedSingleBond NonConjugatedSingleBond NonConjugatedSingleBond NonConjugatedSingleBond ConjugatedDoubleBond ConjugatedSingleBond ConjugatedSingleBond ConjugatedSingleBond ConjugatedSingleBond ConjugatedSingleBond ConjugatedDoubleBond ConjugatedSingleBond ConjugatedSingleBond ConjugatedDoubleBond ConjugatedDoubleBond NonConjugatedSingleBond
M  BCL CHI   2   R   7   R  13   S  17   S  35   R
M  BCL DBI - - - - - - - -
M  END
> <ConfClashScore>
0 

> <ConfOneFourInteractionScore>
-0.977702 

> <ConfScore>
-0.252326 

> <ConfScorePBest>
0.0098455 

> <ConfTolerance>
1.26422 

$$$$
ChEBI.****
  PyMOL2.5          3D                             0

 43 45  0  0  0  0  0  0  0  0999 V2000
    1.0794    0.7953    7.1192 N   0  0  0  1  0  0  0  0  0  0  0  0
    0.5136    0.6147    5.7679 C   0  0  0  1  0  0  0  0  0  0  0  0
    0.9272    1.3473    5.1066 H   0  0  0  1  0  0  0  0  0  0  0  0
    0.8425    1.8331    7.9831 C   0  0  0  1  0  0  0  0  0  0  0  0
    1.9442   -0.0331    7.7663 C   0  0  0  1  0  0  0  0  0  0  0  0
    2.3058   -0.9091    7.3380 H   0  0  0  1  0  0  0  0  0  0  0  0
   -1.0154    0.7619    5.8186 C   0  0  0  1  0  0  0  0  0  0  0  0
   -1.3287    1.2174    6.7347 H   0  0  0  1  0  0  0  0  0  0  0  0
    0.8081   -0.6703    5.2973 O   0  0  0  1  0  0  0  0  0  0  0  0
    1.5974    1.5471    9.1286 C   0  0  0  1  0  0  0  0  0  0  0  0
    0.0513    2.8900    7.7934 N   0  0  0  1  0  0  0  0  0  0  0  0
    2.2854    0.3549    8.9650 N   0  0  0  1  0  0  0  0  0  0  0  0
   -1.4981   -0.6921    5.7305 C   0  0  0  1  0  0  0  0  0  0  0  0
   -2.4418   -0.7520    5.2297 H   0  0  0  1  0  0  0  0  0  0  0  0
   -1.4954    1.5313    4.7151 O   0  0  0  1  0  0  0  0  0  0  0  0
   -1.9916    0.9639    4.1205 H   0  0  0  1  0  0  0  0  0  0  0  0
   -0.4157   -1.3751    4.9265 C   0  0  0  1  0  0  0  0  0  0  0  0
   -0.6051   -1.2795    3.8778 H   0  0  0  1  0  0  0  0  0  0  0  0
    1.4953    2.4748   10.1609 C   0  0  0  1  0  0  0  0  0  0  0  0
    0.0552    3.6927    8.8506 C   0  0  0  1  0  0  0  0  0  0  0  0
   -0.5384    4.5430    8.7719 H   0  0  0  1  0  0  0  0  0  0  0  0
   -1.6126   -1.2814    7.0517 O   0  0  0  1  0  0  0  0  0  0  0  0
   -0.3226   -2.8215    5.2863 C   0  0  0  1  0  0  0  0  0  0  0  0
   -0.1227   -2.9246    6.3324 H   0  0  0  1  0  0  0  0  0  0  0  0
    0.4608   -3.2868    4.7254 H   0  0  0  1  0  0  0  0  0  0  0  0
    0.7218    3.5550   10.0076 N   0  0  0  1  0  0  0  0  0  0  0  0
    2.2033    2.2485   11.3230 N   0  0  0  1  0  0  0  0  0  0  0  0
    2.1053    2.8590   12.0833 H   0  0  0  1  0  0  0  0  0  0  0  0
    2.8042    1.4771   11.3883 H   0  0  0  1  0  0  0  0  0  0  0  0
   -3.0534   -1.8395    7.6014 P   0  0  0  1  0  0  0  0  0  0  0  0
   -1.5919   -3.4370    4.9642 O   0  0  0  1  0  0  0  0  0  0  0  0
   -3.8518   -2.3210    6.4520 O   0  0  0  1  0  0  0  0  0  0  0  0
   -3.7784   -0.5422    8.2461 O   0  5  0  1  0  0  0  0  0  0  0  0
   -2.8302   -2.8716    8.8299 O   0  5  0  1  0  0  0  0  0  0  0  0
   -1.6660   -4.9401    4.5046 P   0  0  0  1  0  0  0  0  0  0  0  0
   -3.3122   -5.2115    4.3453 O   0  0  0  1  0  0  0  0  0  0  0  0
   -1.2335   -5.7246    5.6826 O   0  0  0  0  0  0  0  0  0  0  0  0
   -0.9825   -5.1319    3.2162 O   0  0  0  1  0  0  0  0  0  0  0  0
   -4.7676   -4.3298    4.4630 S   0  0  0  1  0  0  0  0  0  0  0  0
   -5.6504   -5.2486    3.8026 O   0  0  0  1  0  0  0  0  0  0  0  0
   -5.7696   -6.0281    4.3501 H   0  0  0  1  0  0  0  0  0  0  0  0
   -4.8280   -4.3227    5.8444 O   0  0  0  1  0  0  0  0  0  0  0  0
   -4.5655   -3.1525    3.7935 O   0  0  0  1  0  0  0  0  0  0  0  0
  1  2  1  0  0  0  0
  1  4  1  0  0  0  0
  1  5  1  0  0  0  0
  2  3  1  0  0  0  0
  2  7  1  0  0  0  0
  2  9  1  0  0  0  0
  4 10  2  0  0  0  0
  4 11  1  0  0  0  0
  5  6  1  0  0  0  0
  5 12  2  0  0  0  0
  7  8  1  0  0  0  0
  7 13  1  0  0  0  0
  7 15  1  0  0  0  0
  9 17  1  0  0  0  0
 10 12  1  0  0  0  0
 10 19  1  0  0  0  0
 11 20  2  0  0  0  0
 13 14  1  0  0  0  0
 13 17  1  0  0  0  0
 13 22  1  0  0  0  0
 15 16  1  0  0  0  0
 17 18  1  0  0  0  0
 17 23  1  0  0  0  0
 19 26  2  0  0  0  0
 19 27  1  0  0  0  0
 20 21  1  0  0  0  0
 20 26  1  0  0  0  0
 22 30  1  0  0  0  0
 23 24  1  0  0  0  0
 23 25  1  0  0  0  0
 23 31  1  0  0  0  0
 27 28  1  0  0  0  0
 27 29  1  0  0  0  0
 30 32  2  0  0  0  0
 30 33  1  0  0  0  0
 30 34  1  0  0  0  0
 31 35  1  0  0  0  0
 35 36  1  0  0  0  0
 35 37  1  0  0  0  0
 35 38  2  0  0  0  0
 36 39  1  0  0  0  0
 39 40  1  0  0  0  0
 39 42  2  0  0  0  0
 39 43  2  0  0  0  0
 40 41  1  0  0  0  0
M  BCL ATM N_TrTrTrPi2 C_TeTeTeTe H_S C_TrTrTrPi C_TrTrTrPi H_S C_TeTeTeTe H_S O_Te2Te2TeTe C_TrTrTrPi N_Tr2TrTrPi N_Tr2TrTrPi C_TeTeTeTe H_S O_Te2Te2TeTe H_S C_TeTeTeTe H_S C_TrTrTrPi C_TrTrTrPi H_S O_Tr2TrTrPi2 C_TeTeTeTe H_S H_S N_Tr2TrTrPi N_TrTrTrPi2 H_S H_S P_TeTeTeTePi O_Tr2TrTrPi2 O_Tr2Tr2TrPi O_Te2Te2Te2Te O_Te2Te2Te2Te P_TeTeTeTePi O_Tr2TrTrPi2 O_Te2Te2TeTe O_Tr2Tr2TrPi S_TeTeTeTePiPi O_Te2Te2TeTe H_S O_Tr2Tr2TrPi O_Tr2Tr2TrPi
M  BCL BND NonConjugatedSingleBond AromaticSingleBond AromaticSingleBond NonConjugatedSingleBond NonConjugatedSingleBondInRing NonConjugatedSingleBondInRing AromaticDoubleBond AromaticSingleBond NonConjugatedSingleBond AromaticDoubleBond NonConjugatedSingleBond NonConjugatedSingleBondInRing NonConjugatedSingleBond NonConjugatedSingleBondInRing AromaticSingleBond AromaticSingleBond AromaticDoubleBond NonConjugatedSingleBond NonConjugatedSingleBondInRing NonConjugatedSingleBond NonConjugatedSingleBond NonConjugatedSingleBond NonConjugatedSingleBond AromaticDoubleBond ConjugatedSingleBond NonConjugatedSingleBond AromaticSingleBond ConjugatedSingleBond NonConjugatedSingleBond NonConjugatedSingleBond NonConjugatedSingleBond NonConjugatedSingleBond NonConjugatedSingleBond ConjugatedDoubleBond ConjugatedSingleBond ConjugatedSingleBond ConjugatedSingleBond ConjugatedSingleBond ConjugatedSingleBond ConjugatedDoubleBond ConjugatedSingleBond ConjugatedSingleBond ConjugatedDoubleBond ConjugatedDoubleBond NonConjugatedSingleBond
M  BCL CHI   2   R   7   R  13   S  17   S  35   R
M  BCL DBI - - - - - - - -
M  END
> <ConfClashScore>
0 

> <ConfOneFourInteractionScore>
-0.979765 

> <ConfScore>
-0.250434 

> <ConfScorePBest>
0.0097425 

> <ConfTolerance>
1.23039 

$$$$
ChEBI.****
  PyMOL2.5          3D                             0

 43 45  0  0  0  0  0  0  0  0999 V2000
    1.0774    0.7918    7.1155 N   0  0  0  1  0  0  0  0  0  0  0  0
    0.4964    0.6147    5.7398 C   0  0  0  1  0  0  0  0  0  0  0  0
   -0.0695   -0.2927    5.7051 H   0  0  0  1  0  0  0  0  0  0  0  0
    0.8464    1.8273    7.9838 C   0  0  0  1  0  0  0  0  0  0  0  0
    1.9412   -0.0418    7.7572 C   0  0  0  1  0  0  0  0  0  0  0  0
    2.2986   -0.9175    7.3247 H   0  0  0  1  0  0  0  0  0  0  0  0
    1.6072    0.5962    4.6854 C   0  0  0  1  0  0  0  0  0  0  0  0
    2.4860    1.0894    5.0451 H   0  0  0  1  0  0  0  0  0  0  0  0
   -0.3347    1.7446    5.3908 O   0  0  0  1  0  0  0  0  0  0  0  0
    1.6036    1.5346    9.1261 C   0  0  0  1  0  0  0  0  0  0  0  0
    0.0583    2.8875    7.8002 N   0  0  0  1  0  0  0  0  0  0  0  0
    2.2872    0.3407    8.9563 N   0  0  0  1  0  0  0  0  0  0  0  0
    0.9980    1.3503    3.5326 C   0  0  0  1  0  0  0  0  0  0  0  0
    0.4057    0.7041    2.9190 H   0  0  0  1  0  0  0  0  0  0  0  0
    1.9325   -0.7422    4.3075 O   0  0  0  1  0  0  0  0  0  0  0  0
    1.5912   -0.9187    3.4277 H   0  0  0  1  0  0  0  0  0  0  0  0
    0.1246    2.3975    4.2385 C   0  0  0  1  0  0  0  0  0  0  0  0
   -0.6953    2.6891    3.6158 H   0  0  0  1  0  0  0  0  0  0  0  0
    1.5076    2.4590   10.1621 C   0  0  0  1  0  0  0  0  0  0  0  0
    0.0679    3.6864    8.8602 C   0  0  0  1  0  0  0  0  0  0  0  0
   -0.5230    4.5390    8.7863 H   0  0  0  1  0  0  0  0  0  0  0  0
    2.0242    1.9847    2.7204 O   0  0  0  1  0  0  0  0  0  0  0  0
    0.9301    3.6022    4.5986 C   0  0  0  1  0  0  0  0  0  0  0  0
    1.7107    3.3290    5.2775 H   0  0  0  1  0  0  0  0  0  0  0  0
    0.3013    4.3380    5.0549 H   0  0  0  1  0  0  0  0  0  0  0  0
    0.7373    3.5423   10.0149 N   0  0  0  1  0  0  0  0  0  0  0  0
    2.1919    2.2713   11.3276 N   0  0  0  1  0  0  0  0  0  0  0  0
    2.1046    2.9200   12.0569 H   0  0  0  1  0  0  0  0  0  0  0  0
    2.7707    1.4878   11.4353 H   0  0  0  1  0  0  0  0  0  0  0  0
    2.0460    1.6863    1.1079 P   0  0  0  1  0  0  0  0  0  0  0  0
    1.4966    4.1263    3.3870 O   0  0  0  1  0  0  0  0  0  0  0  0
    0.7155    1.2937    0.5922 O   0  0  0  1  0  0  0  0  0  0  0  0
    3.1972    0.6011    0.7593 O   0  5  0  1  0  0  0  0  0  0  0  0
    2.5982    3.0999    0.5412 O   0  5  0  1  0  0  0  0  0  0  0  0
    2.5776    5.3035    3.3049 P   0  0  0  1  0  0  0  0  0  0  0  0
    3.7777    4.8485    4.3827 O   0  0  0  1  0  0  0  0  0  0  0  0
    2.0391    6.5577    3.8690 O   0  0  0  0  0  0  0  0  0  0  0  0
    3.0798    5.2662    1.9219 O   0  0  0  1  0  0  0  0  0  0  0  0
    5.2601    4.1661    4.3422 S   0  0  0  1  0  0  0  0  0  0  0  0
    6.0232    5.1439    3.6202 O   0  0  0  1  0  0  0  0  0  0  0  0
    5.6388    5.2715    2.7499 H   0  0  0  1  0  0  0  0  0  0  0  0
    5.4544    4.0739    5.7364 O   0  0  0  1  0  0  0  0  0  0  0  0
    5.2425    2.8984    3.6948 O   0  0  0  1  0  0  0  0  0  0  0  0
  1  2  1  0  0  0  0
  1  4  1  0  0  0  0
  1  5  1  0  0  0  0
  2  3  1  0  0  0  0
  2  7  1  0  0  0  0
  2  9  1  0  0  0  0
  4 10  2  0  0  0  0
  4 11  1  0  0  0  0
  5  6  1  0  0  0  0
  5 12  2  0  0  0  0
  7  8  1  0  0  0  0
  7 13  1  0  0  0  0
  7 15  1  0  0  0  0
  9 17  1  0  0  0  0
 10 12  1  0  0  0  0
 10 19  1  0  0  0  0
 11 20  2  0  0  0  0
 13 14  1  0  0  0  0
 13 17  1  0  0  0  0
 13 22  1  0  0  0  0
 15 16  1  0  0  0  0
 17 18  1  0  0  0  0
 17 23  1  0  0  0  0
 19 26  2  0  0  0  0
 19 27  1  0  0  0  0
 20 21  1  0  0  0  0
 20 26  1  0  0  0  0
 22 30  1  0  0  0  0
 23 24  1  0  0  0  0
 23 25  1  0  0  0  0
 23 31  1  0  0  0  0
 27 28  1  0  0  0  0
 27 29  1  0  0  0  0
 30 32  2  0  0  0  0
 30 33  1  0  0  0  0
 30 34  1  0  0  0  0
 31 35  1  0  0  0  0
 35 36  1  0  0  0  0
 35 37  1  0  0  0  0
 35 38  2  0  0  0  0
 36 39  1  0  0  0  0
 39 40  1  0  0  0  0
 39 42  2  0  0  0  0
 39 43  2  0  0  0  0
 40 41  1  0  0  0  0
M  BCL ATM N_TrTrTrPi2 C_TeTeTeTe H_S C_TrTrTrPi C_TrTrTrPi H_S C_TeTeTeTe H_S O_Te2Te2TeTe C_TrTrTrPi N_Tr2TrTrPi N_Tr2TrTrPi C_TeTeTeTe H_S O_Te2Te2TeTe H_S C_TeTeTeTe H_S C_TrTrTrPi C_TrTrTrPi H_S O_Tr2TrTrPi2 C_TeTeTeTe H_S H_S N_Tr2TrTrPi N_TrTrTrPi2 H_S H_S P_TeTeTeTePi O_Tr2TrTrPi2 O_Tr2Tr2TrPi O_Te2Te2Te2Te O_Te2Te2Te2Te P_TeTeTeTePi O_Tr2TrTrPi2 O_Te2Te2TeTe O_Tr2Tr2TrPi S_TeTeTeTePiPi O_Te2Te2TeTe H_S O_Tr2Tr2TrPi O_Tr2Tr2TrPi
M  BCL BND NonConjugatedSingleBond AromaticSingleBond AromaticSingleBond NonConjugatedSingleBond NonConjugatedSingleBondInRing NonConjugatedSingleBondInRing AromaticDoubleBond AromaticSingleBond NonConjugatedSingleBond AromaticDoubleBond NonConjugatedSingleBond NonConjugatedSingleBondInRing NonConjugatedSingleBond NonConjugatedSingleBondInRing AromaticSingleBond AromaticSingleBond AromaticDoubleBond NonConjugatedSingleBond NonConjugatedSingleBondInRing NonConjugatedSingleBond NonConjugatedSingleBond NonConjugatedSingleBond NonConjugatedSingleBond AromaticDoubleBond ConjugatedSingleBond NonConjugatedSingleBond AromaticSingleBond ConjugatedSingleBond NonConjugatedSingleBond NonConjugatedSingleBond NonConjugatedSingleBond NonConjugatedSingleBond NonConjugatedSingleBond ConjugatedDoubleBond ConjugatedSingleBond ConjugatedSingleBond ConjugatedSingleBond ConjugatedSingleBond ConjugatedSingleBond ConjugatedDoubleBond ConjugatedSingleBond ConjugatedSingleBond ConjugatedDoubleBond ConjugatedDoubleBond NonConjugatedSingleBond
M  BCL CHI   2   R   7   R  13   S  17   S  35   R
M  BCL DBI - - - - - - - -
M  END
> <ConfClashScore>
0 

> <ConfOneFourInteractionScore>
-0.981627 

> <ConfScore>
-0.250245 

> <ConfScorePBest>
0.0096395 

> <ConfTolerance>
1.08014 

$$$$
ChEBI.****
  PyMOL2.5          3D                             0

 43 45  0  0  0  0  0  0  0  0999 V2000
    1.0569    0.7779    7.1116 N   0  0  0  1  0  0  0  0  0  0  0  0
    0.5516    0.6621    5.7296 C   0  0  0  1  0  0  0  0  0  0  0  0
    1.1784    1.2271    5.0716 H   0  0  0  1  0  0  0  0  0  0  0  0
    0.8366    1.8134    7.9828 C   0  0  0  1  0  0  0  0  0  0  0  0
    1.9239   -0.0587    7.7450 C   0  0  0  1  0  0  0  0  0  0  0  0
    2.2750   -0.9350    7.3087 H   0  0  0  1  0  0  0  0  0  0  0  0
   -0.8971    1.1515    5.6441 C   0  0  0  1  0  0  0  0  0  0  0  0
   -1.3763    1.1011    6.5995 H   0  0  0  1  0  0  0  0  0  0  0  0
    0.5054   -0.7235    5.3207 O   0  0  0  1  0  0  0  0  0  0  0  0
    1.6031    1.5176    9.1180 C   0  0  0  1  0  0  0  0  0  0  0  0
    0.0499    2.8761    7.8070 N   0  0  0  1  0  0  0  0  0  0  0  0
    2.2817    0.3219    8.9413 N   0  0  0  1  0  0  0  0  0  0  0  0
   -1.5274    0.1887    4.6723 C   0  0  0  1  0  0  0  0  0  0  0  0
   -1.3637    0.4985    3.6613 H   0  0  0  1  0  0  0  0  0  0  0  0
   -0.9573    2.4905    5.1505 O   0  0  0  1  0  0  0  0  0  0  0  0
   -0.4206    3.0610    5.7055 H   0  0  0  1  0  0  0  0  0  0  0  0
   -0.7923   -1.1252    4.9745 C   0  0  0  1  0  0  0  0  0  0  0  0
   -0.7757   -1.7575    4.1115 H   0  0  0  1  0  0  0  0  0  0  0  0
    1.5190    2.4415   10.1556 C   0  0  0  1  0  0  0  0  0  0  0  0
    0.0713    3.6740    8.8675 C   0  0  0  1  0  0  0  0  0  0  0  0
   -0.5177    4.5284    8.7994 H   0  0  0  1  0  0  0  0  0  0  0  0
   -2.9522    0.0586    4.9144 O   0  0  0  1  0  0  0  0  0  0  0  0
   -1.4353   -1.8380    6.0952 C   0  0  0  1  0  0  0  0  0  0  0  0
   -2.4246   -2.1269    5.8077 H   0  0  0  1  0  0  0  0  0  0  0  0
   -1.4853   -1.1882    6.9438 H   0  0  0  1  0  0  0  0  0  0  0  0
    0.7505    3.5271   10.0160 N   0  0  0  1  0  0  0  0  0  0  0  0
    2.1939    2.2994   11.3393 N   0  0  0  1  0  0  0  0  0  0  0  0
    2.0978    2.9754   12.0423 H   0  0  0  1  0  0  0  0  0  0  0  0
    2.7727    1.5219   11.4831 H   0  0  0  1  0  0  0  0  0  0  0  0
   -3.8548    1.3597    5.3411 P   0  0  0  1  0  0  0  0  0  0  0  0
   -0.6764   -3.0197    6.4441 O   0  0  0  1  0  0  0  0  0  0  0  0
   -3.6478    2.3919    4.3009 O   0  0  0  1  0  0  0  0  0  0  0  0
   -3.5456    1.8372    6.8579 O   0  5  0  1  0  0  0  0  0  0  0  0
   -5.3968    0.8634    5.3283 O   0  5  0  1  0  0  0  0  0  0  0  0
   -1.3133   -4.0623    7.4762 P   0  0  0  1  0  0  0  0  0  0  0  0
   -2.7001   -4.5575    6.6758 O   0  0  0  1  0  0  0  0  0  0  0  0
   -1.6742   -3.2863    8.6762 O   0  0  0  0  0  0  0  0  0  0  0  0
   -0.4939   -5.2810    7.5605 O   0  0  0  1  0  0  0  0  0  0  0  0
   -3.1578   -5.7019    5.8779 S   0  0  0  1  0  0  0  0  0  0  0  0
   -3.4749   -5.2028    4.5153 O   0  0  0  1  0  0  0  0  0  0  0  0
   -2.7722   -4.6216    4.2154 H   0  0  0  1  0  0  0  0  0  0  0  0
   -2.0948   -6.7253    5.7995 O   0  0  0  1  0  0  0  0  0  0  0  0
   -4.3840   -6.2881    6.4337 O   0  0  0  1  0  0  0  0  0  0  0  0
  1  2  1  0  0  0  0
  1  4  1  0  0  0  0
  1  5  1  0  0  0  0
  2  3  1  0  0  0  0
  2  7  1  0  0  0  0
  2  9  1  0  0  0  0
  4 10  2  0  0  0  0
  4 11  1  0  0  0  0
  5  6  1  0  0  0  0
  5 12  2  0  0  0  0
  7  8  1  0  0  0  0
  7 13  1  0  0  0  0
  7 15  1  0  0  0  0
  9 17  1  0  0  0  0
 10 12  1  0  0  0  0
 10 19  1  0  0  0  0
 11 20  2  0  0  0  0
 13 14  1  0  0  0  0
 13 17  1  0  0  0  0
 13 22  1  0  0  0  0
 15 16  1  0  0  0  0
 17 18  1  0  0  0  0
 17 23  1  0  0  0  0
 19 26  2  0  0  0  0
 19 27  1  0  0  0  0
 20 21  1  0  0  0  0
 20 26  1  0  0  0  0
 22 30  1  0  0  0  0
 23 24  1  0  0  0  0
 23 25  1  0  0  0  0
 23 31  1  0  0  0  0
 27 28  1  0  0  0  0
 27 29  1  0  0  0  0
 30 32  2  0  0  0  0
 30 33  1  0  0  0  0
 30 34  1  0  0  0  0
 31 35  1  0  0  0  0
 35 36  1  0  0  0  0
 35 37  1  0  0  0  0
 35 38  2  0  0  0  0
 36 39  1  0  0  0  0
 39 40  1  0  0  0  0
 39 42  2  0  0  0  0
 39 43  2  0  0  0  0
 40 41  1  0  0  0  0
M  BCL ATM N_TrTrTrPi2 C_TeTeTeTe H_S C_TrTrTrPi C_TrTrTrPi H_S C_TeTeTeTe H_S O_Te2Te2TeTe C_TrTrTrPi N_Tr2TrTrPi N_Tr2TrTrPi C_TeTeTeTe H_S O_Te2Te2TeTe H_S C_TeTeTeTe H_S C_TrTrTrPi C_TrTrTrPi H_S O_Tr2TrTrPi2 C_TeTeTeTe H_S H_S N_Tr2TrTrPi N_TrTrTrPi2 H_S H_S P_TeTeTeTePi O_Tr2TrTrPi2 O_Tr2Tr2TrPi O_Te2Te2Te2Te O_Te2Te2Te2Te P_TeTeTeTePi O_Tr2TrTrPi2 O_Te2Te2TeTe O_Tr2Tr2TrPi S_TeTeTeTePiPi O_Te2Te2TeTe H_S O_Tr2Tr2TrPi O_Tr2Tr2TrPi
M  BCL BND NonConjugatedSingleBond AromaticSingleBond AromaticSingleBond NonConjugatedSingleBond NonConjugatedSingleBondInRing NonConjugatedSingleBondInRing AromaticDoubleBond AromaticSingleBond NonConjugatedSingleBond AromaticDoubleBond NonConjugatedSingleBond NonConjugatedSingleBondInRing NonConjugatedSingleBond NonConjugatedSingleBondInRing AromaticSingleBond AromaticSingleBond AromaticDoubleBond NonConjugatedSingleBond NonConjugatedSingleBondInRing NonConjugatedSingleBond NonConjugatedSingleBond NonConjugatedSingleBond NonConjugatedSingleBond AromaticDoubleBond ConjugatedSingleBond NonConjugatedSingleBond AromaticSingleBond ConjugatedSingleBond NonConjugatedSingleBond NonConjugatedSingleBond NonConjugatedSingleBond NonConjugatedSingleBond NonConjugatedSingleBond ConjugatedDoubleBond ConjugatedSingleBond ConjugatedSingleBond ConjugatedSingleBond ConjugatedSingleBond ConjugatedSingleBond ConjugatedDoubleBond ConjugatedSingleBond ConjugatedSingleBond ConjugatedDoubleBond ConjugatedDoubleBond NonConjugatedSingleBond
M  BCL CHI   2   R   7   R  13   S  17   S  35   R
M  BCL DBI - - - - - - - -
M  END
> <ConfClashScore>
0 

> <ConfOneFourInteractionScore>
-0.961519 

> <ConfScore>
-0.24911 

> <ConfScorePBest>
0.0095365 

> <ConfTolerance>
1.11239 

$$$$
ChEBI.****
  PyMOL2.5          3D                             0

 43 45  0  0  0  0  0  0  0  0999 V2000
    1.0630    0.7861    7.1063 N   0  0  0  1  0  0  0  0  0  0  0  0
    0.4877    0.6223    5.7598 C   0  0  0  1  0  0  0  0  0  0  0  0
   -0.5648    0.4474    5.8399 H   0  0  0  1  0  0  0  0  0  0  0  0
    0.8471    1.8225    7.9774 C   0  0  0  1  0  0  0  0  0  0  0  0
    1.9185   -0.0592    7.7437 C   0  0  0  1  0  0  0  0  0  0  0  0
    2.2640   -0.9383    7.3083 H   0  0  0  1  0  0  0  0  0  0  0  0
    1.1664   -0.5370    5.0277 C   0  0  0  1  0  0  0  0  0  0  0  0
    2.1831   -0.6568    5.3390 H   0  0  0  1  0  0  0  0  0  0  0  0
    0.7408    1.7860    4.9643 O   0  0  0  1  0  0  0  0  0  0  0  0
    1.6041    1.5183    9.1168 C   0  0  0  1  0  0  0  0  0  0  0  0
    0.0713    2.8926    7.7983 N   0  0  0  1  0  0  0  0  0  0  0  0
    2.2727    0.3165    8.9425 N   0  0  0  1  0  0  0  0  0  0  0  0
    1.0762   -0.0619    3.5850 C   0  0  0  1  0  0  0  0  0  0  0  0
    0.1394   -0.3477    3.1543 H   0  0  0  1  0  0  0  0  0  0  0  0
    0.4601   -1.7652    5.2211 O   0  0  0  1  0  0  0  0  0  0  0  0
    0.9182   -2.4738    4.7631 H   0  0  0  1  0  0  0  0  0  0  0  0
    1.1868    1.3994    3.6515 C   0  0  0  1  0  0  0  0  0  0  0  0
    0.5685    1.8507    2.9039 H   0  0  0  1  0  0  0  0  0  0  0  0
    1.5224    2.4415   10.1550 C   0  0  0  1  0  0  0  0  0  0  0  0
    0.0938    3.6890    8.8600 C   0  0  0  1  0  0  0  0  0  0  0  0
   -0.4869    4.5489    8.7895 H   0  0  0  1  0  0  0  0  0  0  0  0
    2.1610   -0.6184    2.7980 O   0  0  0  1  0  0  0  0  0  0  0  0
    2.6051    1.8186    3.4450 C   0  0  0  1  0  0  0  0  0  0  0  0
    2.7023    2.8707    3.6138 H   0  0  0  1  0  0  0  0  0  0  0  0
    2.9118    1.5872    2.4464 H   0  0  0  1  0  0  0  0  0  0  0  0
    0.7648    3.5344   10.0123 N   0  0  0  1  0  0  0  0  0  0  0  0
    2.1889    2.2919   11.3425 N   0  0  0  1  0  0  0  0  0  0  0  0
    2.7309    1.4912   11.5027 H   0  0  0  1  0  0  0  0  0  0  0  0
    2.1238    2.9854   12.0318 H   0  0  0  1  0  0  0  0  0  0  0  0
    2.6506   -2.1680    3.0183 P   0  0  0  1  0  0  0  0  0  0  0  0
    3.4209    1.0901    4.3924 O   0  0  0  1  0  0  0  0  0  0  0  0
    3.2265   -2.3909    4.3633 O   0  0  0  1  0  0  0  0  0  0  0  0
    3.5834   -2.6892    1.8006 O   0  5  0  1  0  0  0  0  0  0  0  0
    1.3326   -3.1012    2.8907 O   0  5  0  1  0  0  0  0  0  0  0  0
    4.8851    1.5602    4.6318 P   0  0  0  1  0  0  0  0  0  0  0  0
    5.4462    0.8378    5.9708 O   0  0  0  1  0  0  0  0  0  0  0  0
    4.9002    3.0562    4.9600 O   0  0  0  0  0  0  0  0  0  0  0  0
    5.6682    1.2108    3.4284 O   0  0  0  1  0  0  0  0  0  0  0  0
    5.3195    1.4252    7.4253 S   0  0  0  1  0  0  0  0  0  0  0  0
    6.7046    1.4794    7.8001 O   0  0  0  1  0  0  0  0  0  0  0  0
    7.1896    2.0046    7.1594 H   0  0  0  1  0  0  0  0  0  0  0  0
    4.7753    2.7055    7.3084 O   0  0  0  1  0  0  0  0  0  0  0  0
    4.6274    0.5287    8.2604 O   0  0  0  1  0  0  0  0  0  0  0  0
  1  2  1  0  0  0  0
  1  4  1  0  0  0  0
  1  5  1  0  0  0  0
  2  3  1  0  0  0  0
  2  7  1  0  0  0  0
  2  9  1  0  0  0  0
  4 10  2  0  0  0  0
  4 11  1  0  0  0  0
  5  6  1  0  0  0  0
  5 12  2  0  0  0  0
  7  8  1  0  0  0  0
  7 13  1  0  0  0  0
  7 15  1  0  0  0  0
  9 17  1  0  0  0  0
 10 12  1  0  0  0  0
 10 19  1  0  0  0  0
 11 20  2  0  0  0  0
 13 14  1  0  0  0  0
 13 17  1  0  0  0  0
 13 22  1  0  0  0  0
 15 16  1  0  0  0  0
 17 18  1  0  0  0  0
 17 23  1  0  0  0  0
 19 26  2  0  0  0  0
 19 27  1  0  0  0  0
 20 21  1  0  0  0  0
 20 26  1  0  0  0  0
 22 30  1  0  0  0  0
 23 24  1  0  0  0  0
 23 25  1  0  0  0  0
 23 31  1  0  0  0  0
 27 28  1  0  0  0  0
 27 29  1  0  0  0  0
 30 32  2  0  0  0  0
 30 33  1  0  0  0  0
 30 34  1  0  0  0  0
 31 35  1  0  0  0  0
 35 36  1  0  0  0  0
 35 37  1  0  0  0  0
 35 38  2  0  0  0  0
 36 39  1  0  0  0  0
 39 40  1  0  0  0  0
 39 42  2  0  0  0  0
 39 43  2  0  0  0  0
 40 41  1  0  0  0  0
M  BCL ATM N_TrTrTrPi2 C_TeTeTeTe H_S C_TrTrTrPi C_TrTrTrPi H_S C_TeTeTeTe H_S O_Te2Te2TeTe C_TrTrTrPi N_Tr2TrTrPi N_Tr2TrTrPi C_TeTeTeTe H_S O_Te2Te2TeTe H_S C_TeTeTeTe H_S C_TrTrTrPi C_TrTrTrPi H_S O_Tr2TrTrPi2 C_TeTeTeTe H_S H_S N_Tr2TrTrPi N_TrTrTrPi2 H_S H_S P_TeTeTeTePi O_Tr2TrTrPi2 O_Tr2Tr2TrPi O_Te2Te2Te2Te O_Te2Te2Te2Te P_TeTeTeTePi O_Tr2TrTrPi2 O_Te2Te2TeTe O_Tr2Tr2TrPi S_TeTeTeTePiPi O_Te2Te2TeTe H_S O_Tr2Tr2TrPi O_Tr2Tr2TrPi
M  BCL BND NonConjugatedSingleBond AromaticSingleBond AromaticSingleBond NonConjugatedSingleBond NonConjugatedSingleBondInRing NonConjugatedSingleBondInRing AromaticDoubleBond AromaticSingleBond NonConjugatedSingleBond AromaticDoubleBond NonConjugatedSingleBond NonConjugatedSingleBondInRing NonConjugatedSingleBond NonConjugatedSingleBondInRing AromaticSingleBond AromaticSingleBond AromaticDoubleBond NonConjugatedSingleBond NonConjugatedSingleBondInRing NonConjugatedSingleBond NonConjugatedSingleBond NonConjugatedSingleBond NonConjugatedSingleBond AromaticDoubleBond ConjugatedSingleBond NonConjugatedSingleBond AromaticSingleBond ConjugatedSingleBond NonConjugatedSingleBond NonConjugatedSingleBond NonConjugatedSingleBond NonConjugatedSingleBond NonConjugatedSingleBond ConjugatedDoubleBond ConjugatedSingleBond ConjugatedSingleBond ConjugatedSingleBond ConjugatedSingleBond ConjugatedSingleBond ConjugatedDoubleBond ConjugatedSingleBond ConjugatedSingleBond ConjugatedDoubleBond ConjugatedDoubleBond NonConjugatedSingleBond
M  BCL CHI   2   R   7   R  13   S  17   S  35   R
M  BCL DBI - - - - - - - -
M  END
> <ConfClashScore>
0 

> <ConfOneFourInteractionScore>
-0.975392 

> <ConfScore>
-0.248276 

> <ConfScorePBest>
0.00943349 

> <ConfTolerance>
1.21869 

$$$$
ChEBI.****
  PyMOL2.5          3D                             0

 43 45  0  0  0  0  0  0  0  0999 V2000
    1.0660    0.7861    7.1183 N   0  0  0  1  0  0  0  0  0  0  0  0
    0.4946    0.6128    5.7684 C   0  0  0  1  0  0  0  0  0  0  0  0
    0.8866    1.3644    5.1154 H   0  0  0  1  0  0  0  0  0  0  0  0
    0.8459    1.8278    7.9821 C   0  0  0  1  0  0  0  0  0  0  0  0
    1.9203   -0.0541    7.7640 C   0  0  0  1  0  0  0  0  0  0  0  0
    2.2684   -0.9354    7.3355 H   0  0  0  1  0  0  0  0  0  0  0  0
   -1.0390    0.6986    5.8222 C   0  0  0  1  0  0  0  0  0  0  0  0
   -1.3615    1.3682    6.5919 H   0  0  0  1  0  0  0  0  0  0  0  0
    0.7901   -0.6621    5.2753 O   0  0  0  1  0  0  0  0  0  0  0  0
    1.5992    1.5318    9.1260 C   0  0  0  1  0  0  0  0  0  0  0  0
    0.0694    2.8958    7.7934 N   0  0  0  1  0  0  0  0  0  0  0  0
    2.2698    0.3297    8.9617 N   0  0  0  1  0  0  0  0  0  0  0  0
   -1.4401   -0.7318    6.1369 C   0  0  0  1  0  0  0  0  0  0  0  0
   -2.3970   -0.9646    5.7186 H   0  0  0  1  0  0  0  0  0  0  0  0
   -1.5759    1.1202    4.5676 O   0  0  0  1  0  0  0  0  0  0  0  0
   -0.9717    0.8768    3.8624 H   0  0  0  1  0  0  0  0  0  0  0  0
   -0.3194   -1.5591    5.4601 C   0  0  0  1  0  0  0  0  0  0  0  0
   -0.6545   -1.9331    4.5152 H   0  0  0  1  0  0  0  0  0  0  0  0
    1.5128    2.4616   10.1580 C   0  0  0  1  0  0  0  0  0  0  0  0
    0.0872    3.6990    8.8501 C   0  0  0  1  0  0  0  0  0  0  0  0
   -0.4943    4.5577    8.7721 H   0  0  0  1  0  0  0  0  0  0  0  0
   -1.4683   -0.9642    7.5728 O   0  0  0  1  0  0  0  0  0  0  0  0
    0.0798   -2.7015    6.3351 C   0  0  0  1  0  0  0  0  0  0  0  0
   -0.7897   -3.2370    6.6547 H   0  0  0  1  0  0  0  0  0  0  0  0
    0.6095   -2.3374    7.1905 H   0  0  0  1  0  0  0  0  0  0  0  0
    0.7544    3.5526   10.0057 N   0  0  0  1  0  0  0  0  0  0  0  0
    2.1944    2.2714   11.3246 N   0  0  0  1  0  0  0  0  0  0  0  0
    2.7625    1.4809   11.4369 H   0  0  0  1  0  0  0  0  0  0  0  0
    2.1157    2.9254   12.0502 H   0  0  0  1  0  0  0  0  0  0  0  0
   -2.8735   -1.3212    8.3393 P   0  0  0  1  0  0  0  0  0  0  0  0
    0.9366   -3.5713    5.5584 O   0  0  0  1  0  0  0  0  0  0  0  0
   -4.1193   -0.9609    7.6262 O   0  0  0  1  0  0  0  0  0  0  0  0
   -2.9470   -0.5570    9.7658 O   0  5  0  1  0  0  0  0  0  0  0  0
   -2.8047   -2.9095    8.6506 O   0  5  0  1  0  0  0  0  0  0  0  0
    2.1905   -4.1151    6.2022 P   0  0  0  1  0  0  0  0  0  0  0  0
    3.2991   -2.8616    6.2965 O   0  0  0  1  0  0  0  0  0  0  0  0
    2.9188   -5.0935    5.2941 O   0  0  0  0  0  0  0  0  0  0  0  0
    2.0057   -4.6207    7.6110 O   0  0  0  1  0  0  0  0  0  0  0  0
    4.6217   -2.4847    7.1331 S   0  0  0  1  0  0  0  0  0  0  0  0
    5.6644   -2.8297    6.1868 O   0  0  0  1  0  0  0  0  0  0  0  0
    6.4385   -2.2860    6.3506 H   0  0  0  1  0  0  0  0  0  0  0  0
    4.5377   -1.0684    7.4036 O   0  0  0  1  0  0  0  0  0  0  0  0
    4.6001   -3.3118    8.3073 O   0  0  0  1  0  0  0  0  0  0  0  0
  1  2  1  0  0  0  0
  1  4  1  0  0  0  0
  1  5  1  0  0  0  0
  2  3  1  0  0  0  0
  2  7  1  0  0  0  0
  2  9  1  0  0  0  0
  4 10  2  0  0  0  0
  4 11  1  0  0  0  0
  5  6  1  0  0  0  0
  5 12  2  0  0  0  0
  7  8  1  0  0  0  0
  7 13  1  0  0  0  0
  7 15  1  0  0  0  0
  9 17  1  0  0  0  0
 10 12  1  0  0  0  0
 10 19  1  0  0  0  0
 11 20  2  0  0  0  0
 13 14  1  0  0  0  0
 13 17  1  0  0  0  0
 13 22  1  0  0  0  0
 15 16  1  0  0  0  0
 17 18  1  0  0  0  0
 17 23  1  0  0  0  0
 19 26  2  0  0  0  0
 19 27  1  0  0  0  0
 20 21  1  0  0  0  0
 20 26  1  0  0  0  0
 22 30  1  0  0  0  0
 23 24  1  0  0  0  0
 23 25  1  0  0  0  0
 23 31  1  0  0  0  0
 27 28  1  0  0  0  0
 27 29  1  0  0  0  0
 30 32  2  0  0  0  0
 30 33  1  0  0  0  0
 30 34  1  0  0  0  0
 31 35  1  0  0  0  0
 35 36  1  0  0  0  0
 35 37  1  0  0  0  0
 35 38  2  0  0  0  0
 36 39  1  0  0  0  0
 39 40  1  0  0  0  0
 39 42  2  0  0  0  0
 39 43  2  0  0  0  0
 40 41  1  0  0  0  0
M  BCL ATM N_TrTrTrPi2 C_TeTeTeTe H_S C_TrTrTrPi C_TrTrTrPi H_S C_TeTeTeTe H_S O_Te2Te2TeTe C_TrTrTrPi N_Tr2TrTrPi N_Tr2TrTrPi C_TeTeTeTe H_S O_Te2Te2TeTe H_S C_TeTeTeTe H_S C_TrTrTrPi C_TrTrTrPi H_S O_Tr2TrTrPi2 C_TeTeTeTe H_S H_S N_Tr2TrTrPi N_TrTrTrPi2 H_S H_S P_TeTeTeTePi O_Tr2TrTrPi2 O_Tr2Tr2TrPi O_Te2Te2Te2Te O_Te2Te2Te2Te P_TeTeTeTePi O_Tr2TrTrPi2 O_Te2Te2TeTe O_Tr2Tr2TrPi S_TeTeTeTePiPi O_Te2Te2TeTe H_S O_Tr2Tr2TrPi O_Tr2Tr2TrPi
M  BCL BND NonConjugatedSingleBond AromaticSingleBond AromaticSingleBond NonConjugatedSingleBond NonConjugatedSingleBondInRing NonConjugatedSingleBondInRing AromaticDoubleBond AromaticSingleBond NonConjugatedSingleBond AromaticDoubleBond NonConjugatedSingleBond NonConjugatedSingleBondInRing NonConjugatedSingleBond NonConjugatedSingleBondInRing AromaticSingleBond AromaticSingleBond AromaticDoubleBond NonConjugatedSingleBond NonConjugatedSingleBondInRing NonConjugatedSingleBond NonConjugatedSingleBond NonConjugatedSingleBond NonConjugatedSingleBond AromaticDoubleBond ConjugatedSingleBond NonConjugatedSingleBond AromaticSingleBond ConjugatedSingleBond NonConjugatedSingleBond NonConjugatedSingleBond NonConjugatedSingleBond NonConjugatedSingleBond NonConjugatedSingleBond ConjugatedDoubleBond ConjugatedSingleBond ConjugatedSingleBond ConjugatedSingleBond ConjugatedSingleBond ConjugatedSingleBond ConjugatedDoubleBond ConjugatedSingleBond ConjugatedSingleBond ConjugatedDoubleBond ConjugatedDoubleBond NonConjugatedSingleBond
M  BCL CHI   2   R   7   R  13   S  17   S  35   R
M  BCL DBI - - - - - - - -
M  END
> <ConfClashScore>
0 

> <ConfOneFourInteractionScore>
-0.981627 

> <ConfScore>
-0.24031 

> <ConfScorePBest>
0.00933049 

> <ConfTolerance>
1.06554 

$$$$
ChEBI.****
  PyMOL2.5          3D                             0

 43 45  0  0  0  0  0  0  0  0999 V2000
    1.0762    0.7899    7.1055 N   0  0  0  1  0  0  0  0  0  0  0  0
    0.4904    0.6206    5.7308 C   0  0  0  1  0  0  0  0  0  0  0  0
    0.9284    1.3350    5.0655 H   0  0  0  1  0  0  0  0  0  0  0  0
    0.8485    1.8207    7.9803 C   0  0  0  1  0  0  0  0  0  0  0  0
    1.9418   -0.0475    7.7396 C   0  0  0  1  0  0  0  0  0  0  0  0
    2.2974   -0.9209    7.3011 H   0  0  0  1  0  0  0  0  0  0  0  0
   -1.0323    0.8226    5.7841 C   0  0  0  1  0  0  0  0  0  0  0  0
   -1.3270    1.2930    6.6988 H   0  0  0  1  0  0  0  0  0  0  0  0
    0.7376   -0.6762    5.2654 O   0  0  0  1  0  0  0  0  0  0  0  0
    1.6095    1.5215    9.1183 C   0  0  0  1  0  0  0  0  0  0  0  0
    0.0601    2.8822    7.8052 N   0  0  0  1  0  0  0  0  0  0  0  0
    2.2921    0.3282    8.9396 N   0  0  0  1  0  0  0  0  0  0  0  0
   -1.5668   -0.6136    5.7036 C   0  0  0  1  0  0  0  0  0  0  0  0
   -2.5132   -0.6419    5.2050 H   0  0  0  1  0  0  0  0  0  0  0  0
   -1.4869    1.6038    4.6782 O   0  0  0  1  0  0  0  0  0  0  0  0
   -1.9672    2.3692    5.0023 H   0  0  0  1  0  0  0  0  0  0  0  0
   -0.5113   -1.3384    4.9004 C   0  0  0  1  0  0  0  0  0  0  0  0
   -0.6997   -1.2406    3.8516 H   0  0  0  1  0  0  0  0  0  0  0  0
    1.5175    2.4401   10.1597 C   0  0  0  1  0  0  0  0  0  0  0  0
    0.0737    3.6752    8.8696 C   0  0  0  1  0  0  0  0  0  0  0  0
   -0.5171    4.5284    8.8024 H   0  0  0  1  0  0  0  0  0  0  0  0
   -1.6980   -1.1867    7.0143 O   0  0  0  1  0  0  0  0  0  0  0  0
   -0.4704   -2.7471    5.2567 C   0  0  0  1  0  0  0  0  0  0  0  0
   -0.3582   -2.8278    6.3178 H   0  0  0  1  0  0  0  0  0  0  0  0
    0.3714   -3.1973    4.7733 H   0  0  0  1  0  0  0  0  0  0  0  0
    0.7470    3.5245   10.0211 N   0  0  0  1  0  0  0  0  0  0  0  0
    2.1835    2.2948   11.3417 N   0  0  0  1  0  0  0  0  0  0  0  0
    2.0364    2.9349   12.0690 H   0  0  0  1  0  0  0  0  0  0  0  0
    2.8091    1.5503   11.4632 H   0  0  0  1  0  0  0  0  0  0  0  0
   -2.6347   -0.5893    8.2207 P   0  0  0  1  0  0  0  0  0  0  0  0
   -1.6715   -3.4648    4.8611 O   0  0  0  1  0  0  0  0  0  0  0  0
   -3.8548    0.0981    7.7419 O   0  0  0  1  0  0  0  0  0  0  0  0
   -1.8214    0.5204    9.0759 O   0  5  0  1  0  0  0  0  0  0  0  0
   -3.1194   -1.7663    9.2228 O   0  5  0  1  0  0  0  0  0  0  0  0
   -1.7924   -5.0182    5.0812 P   0  0  0  1  0  0  0  0  0  0  0  0
   -0.7076   -5.5678    4.0085 O   0  0  0  1  0  0  0  0  0  0  0  0
   -3.2053   -5.4895    4.8447 O   0  0  0  0  0  0  0  0  0  0  0  0
   -1.2390   -5.2433    6.4212 O   0  0  0  1  0  0  0  0  0  0  0  0
    0.2436   -6.8295    4.2428 S   0  0  0  1  0  0  0  0  0  0  0  0
    1.0357   -6.9788    3.0378 O   0  0  0  1  0  0  0  0  0  0  0  0
    0.5726   -6.5785    2.2982 H   0  0  0  1  0  0  0  0  0  0  0  0
    1.0605   -6.5176    5.3924 O   0  0  0  1  0  0  0  0  0  0  0  0
   -0.7091   -7.8839    4.4528 O   0  0  0  1  0  0  0  0  0  0  0  0
  1  2  1  0  0  0  0
  1  4  1  0  0  0  0
  1  5  1  0  0  0  0
  2  3  1  0  0  0  0
  2  7  1  0  0  0  0
  2  9  1  0  0  0  0
  4 10  2  0  0  0  0
  4 11  1  0  0  0  0
  5  6  1  0  0  0  0
  5 12  2  0  0  0  0
  7  8  1  0  0  0  0
  7 13  1  0  0  0  0
  7 15  1  0  0  0  0
  9 17  1  0  0  0  0
 10 12  1  0  0  0  0
 10 19  1  0  0  0  0
 11 20  2  0  0  0  0
 13 14  1  0  0  0  0
 13 17  1  0  0  0  0
 13 22  1  0  0  0  0
 15 16  1  0  0  0  0
 17 18  1  0  0  0  0
 17 23  1  0  0  0  0
 19 26  2  0  0  0  0
 19 27  1  0  0  0  0
 20 21  1  0  0  0  0
 20 26  1  0  0  0  0
 22 30  1  0  0  0  0
 23 24  1  0  0  0  0
 23 25  1  0  0  0  0
 23 31  1  0  0  0  0
 27 28  1  0  0  0  0
 27 29  1  0  0  0  0
 30 32  2  0  0  0  0
 30 33  1  0  0  0  0
 30 34  1  0  0  0  0
 31 35  1  0  0  0  0
 35 36  1  0  0  0  0
 35 37  1  0  0  0  0
 35 38  2  0  0  0  0
 36 39  1  0  0  0  0
 39 40  1  0  0  0  0
 39 42  2  0  0  0  0
 39 43  2  0  0  0  0
 40 41  1  0  0  0  0
M  BCL ATM N_TrTrTrPi2 C_TeTeTeTe H_S C_TrTrTrPi C_TrTrTrPi H_S C_TeTeTeTe H_S O_Te2Te2TeTe C_TrTrTrPi N_Tr2TrTrPi N_Tr2TrTrPi C_TeTeTeTe H_S O_Te2Te2TeTe H_S C_TeTeTeTe H_S C_TrTrTrPi C_TrTrTrPi H_S O_Tr2TrTrPi2 C_TeTeTeTe H_S H_S N_Tr2TrTrPi N_TrTrTrPi2 H_S H_S P_TeTeTeTePi O_Tr2TrTrPi2 O_Tr2Tr2TrPi O_Te2Te2Te2Te O_Te2Te2Te2Te P_TeTeTeTePi O_Tr2TrTrPi2 O_Te2Te2TeTe O_Tr2Tr2TrPi S_TeTeTeTePiPi O_Te2Te2TeTe H_S O_Tr2Tr2TrPi O_Tr2Tr2TrPi
M  BCL BND NonConjugatedSingleBond AromaticSingleBond AromaticSingleBond NonConjugatedSingleBond NonConjugatedSingleBondInRing NonConjugatedSingleBondInRing AromaticDoubleBond AromaticSingleBond NonConjugatedSingleBond AromaticDoubleBond NonConjugatedSingleBond NonConjugatedSingleBondInRing NonConjugatedSingleBond NonConjugatedSingleBondInRing AromaticSingleBond AromaticSingleBond AromaticDoubleBond NonConjugatedSingleBond NonConjugatedSingleBondInRing NonConjugatedSingleBond NonConjugatedSingleBond NonConjugatedSingleBond NonConjugatedSingleBond AromaticDoubleBond ConjugatedSingleBond NonConjugatedSingleBond AromaticSingleBond ConjugatedSingleBond NonConjugatedSingleBond NonConjugatedSingleBond NonConjugatedSingleBond NonConjugatedSingleBond NonConjugatedSingleBond ConjugatedDoubleBond ConjugatedSingleBond ConjugatedSingleBond ConjugatedSingleBond ConjugatedSingleBond ConjugatedSingleBond ConjugatedDoubleBond ConjugatedSingleBond ConjugatedSingleBond ConjugatedDoubleBond ConjugatedDoubleBond NonConjugatedSingleBond
M  BCL CHI   2   R   7   R  13   S  17   S  35   R
M  BCL DBI - - - - - - - -
M  END
> <ConfClashScore>
0 

> <ConfOneFourInteractionScore>
-0.983639 

> <ConfScore>
-0.239719 

> <ConfScorePBest>
0.00922749 

> <ConfTolerance>
1.06848 

$$$$
ChEBI.****
  PyMOL2.5          3D                             0

 43 45  0  0  0  0  0  0  0  0999 V2000
    1.0980    0.7974    7.0799 N   0  0  0  1  0  0  0  0  0  0  0  0
    0.4493    0.6418    5.7570 C   0  0  0  1  0  0  0  0  0  0  0  0
    0.6980    1.4774    5.1368 H   0  0  0  1  0  0  0  0  0  0  0  0
    0.8607    1.8178    7.9643 C   0  0  0  1  0  0  0  0  0  0  0  0
    1.9424   -0.0568    7.7203 C   0  0  0  1  0  0  0  0  0  0  0  0
    2.2996   -0.9271    7.2770 H   0  0  0  1  0  0  0  0  0  0  0  0
   -1.0681    0.5301    5.9175 C   0  0  0  1  0  0  0  0  0  0  0  0
   -1.3321    0.0743    6.8489 H   0  0  0  1  0  0  0  0  0  0  0  0
    0.8660   -0.5805    5.1379 O   0  0  0  1  0  0  0  0  0  0  0  0
    1.5944    1.4955    9.1139 C   0  0  0  1  0  0  0  0  0  0  0  0
    0.0857    2.8888    7.7876 N   0  0  0  1  0  0  0  0  0  0  0  0
    2.2700    0.2988    8.9328 N   0  0  0  1  0  0  0  0  0  0  0  0
   -1.4196   -0.3649    4.7382 C   0  0  0  1  0  0  0  0  0  0  0  0
   -1.5632    0.2198    3.8537 H   0  0  0  1  0  0  0  0  0  0  0  0
   -1.7016    1.8061    5.8145 O   0  0  0  1  0  0  0  0  0  0  0  0
   -2.1269    2.0209    6.6479 H   0  0  0  1  0  0  0  0  0  0  0  0
   -0.2711   -1.2637    4.5790 C   0  0  0  1  0  0  0  0  0  0  0  0
   -0.1048   -1.4701    3.5423 H   0  0  0  1  0  0  0  0  0  0  0  0
    1.4880    2.4002   10.1662 C   0  0  0  1  0  0  0  0  0  0  0  0
    0.0834    3.6665    8.8633 C   0  0  0  1  0  0  0  0  0  0  0  0
   -0.4983    4.5260    8.7957 H   0  0  0  1  0  0  0  0  0  0  0  0
   -2.6120   -1.1166    5.0150 O   0  0  0  1  0  0  0  0  0  0  0  0
   -0.5133   -2.5434    5.3095 C   0  0  0  1  0  0  0  0  0  0  0  0
   -1.4056   -3.0079    4.9449 H   0  0  0  1  0  0  0  0  0  0  0  0
   -0.6130   -2.3516    6.3574 H   0  0  0  1  0  0  0  0  0  0  0  0
    0.7304    3.4934   10.0266 N   0  0  0  1  0  0  0  0  0  0  0  0
    2.1902    2.3192   11.3723 N   0  0  0  1  0  0  0  0  0  0  0  0
    2.0659    3.0074   12.0588 H   0  0  0  1  0  0  0  0  0  0  0  0
    2.8067    1.5742   11.5312 H   0  0  0  1  0  0  0  0  0  0  0  0
   -3.3902   -2.0873    3.9464 P   0  0  0  1  0  0  0  0  0  0  0  0
    0.6237   -3.4066    5.0724 O   0  0  0  1  0  0  0  0  0  0  0  0
   -2.4953   -3.0514    3.2681 O   0  0  0  1  0  0  0  0  0  0  0  0
   -4.0600   -1.0620    2.8859 O   0  5  0  1  0  0  0  0  0  0  0  0
   -4.6487   -2.8262    4.6496 O   0  5  0  1  0  0  0  0  0  0  0  0
    0.5942   -4.8765    5.6569 P   0  0  0  1  0  0  0  0  0  0  0  0
    1.9516   -5.5379    5.0658 O   0  0  0  1  0  0  0  0  0  0  0  0
   -0.5268   -5.5467    4.9578 O   0  0  0  0  0  0  0  0  0  0  0  0
    0.6241   -4.8599    7.1312 O   0  0  0  1  0  0  0  0  0  0  0  0
    2.6404   -5.1202    3.6863 S   0  0  0  1  0  0  0  0  0  0  0  0
    2.2705   -3.7366    3.4415 O   0  0  0  1  0  0  0  0  0  0  0  0
    1.8178   -3.6704    2.5976 H   0  0  0  1  0  0  0  0  0  0  0  0
    4.0648   -5.2744    3.8773 O   0  0  0  1  0  0  0  0  0  0  0  0
    2.0532   -6.0571    2.7655 O   0  0  0  1  0  0  0  0  0  0  0  0
  1  2  1  0  0  0  0
  1  4  1  0  0  0  0
  1  5  1  0  0  0  0
  2  3  1  0  0  0  0
  2  7  1  0  0  0  0
  2  9  1  0  0  0  0
  4 10  2  0  0  0  0
  4 11  1  0  0  0  0
  5  6  1  0  0  0  0
  5 12  2  0  0  0  0
  7  8  1  0  0  0  0
  7 13  1  0  0  0  0
  7 15  1  0  0  0  0
  9 17  1  0  0  0  0
 10 12  1  0  0  0  0
 10 19  1  0  0  0  0
 11 20  2  0  0  0  0
 13 14  1  0  0  0  0
 13 17  1  0  0  0  0
 13 22  1  0  0  0  0
 15 16  1  0  0  0  0
 17 18  1  0  0  0  0
 17 23  1  0  0  0  0
 19 26  2  0  0  0  0
 19 27  1  0  0  0  0
 20 21  1  0  0  0  0
 20 26  1  0  0  0  0
 22 30  1  0  0  0  0
 23 24  1  0  0  0  0
 23 25  1  0  0  0  0
 23 31  1  0  0  0  0
 27 28  1  0  0  0  0
 27 29  1  0  0  0  0
 30 32  2  0  0  0  0
 30 33  1  0  0  0  0
 30 34  1  0  0  0  0
 31 35  1  0  0  0  0
 35 36  1  0  0  0  0
 35 37  1  0  0  0  0
 35 38  2  0  0  0  0
 36 39  1  0  0  0  0
 39 40  1  0  0  0  0
 39 42  2  0  0  0  0
 39 43  2  0  0  0  0
 40 41  1  0  0  0  0
M  BCL ATM N_TrTrTrPi2 C_TeTeTeTe H_S C_TrTrTrPi C_TrTrTrPi H_S C_TeTeTeTe H_S O_Te2Te2TeTe C_TrTrTrPi N_Tr2TrTrPi N_Tr2TrTrPi C_TeTeTeTe H_S O_Te2Te2TeTe H_S C_TeTeTeTe H_S C_TrTrTrPi C_TrTrTrPi H_S O_Tr2TrTrPi2 C_TeTeTeTe H_S H_S N_Tr2TrTrPi N_TrTrTrPi2 H_S H_S P_TeTeTeTePi O_Tr2TrTrPi2 O_Tr2Tr2TrPi O_Te2Te2Te2Te O_Te2Te2Te2Te P_TeTeTeTePi O_Tr2TrTrPi2 O_Te2Te2TeTe O_Tr2Tr2TrPi S_TeTeTeTePiPi O_Te2Te2TeTe H_S O_Tr2Tr2TrPi O_Tr2Tr2TrPi
M  BCL BND NonConjugatedSingleBond AromaticSingleBond AromaticSingleBond NonConjugatedSingleBond NonConjugatedSingleBondInRing NonConjugatedSingleBondInRing AromaticDoubleBond AromaticSingleBond NonConjugatedSingleBond AromaticDoubleBond NonConjugatedSingleBond NonConjugatedSingleBondInRing NonConjugatedSingleBond NonConjugatedSingleBondInRing AromaticSingleBond AromaticSingleBond AromaticDoubleBond NonConjugatedSingleBond NonConjugatedSingleBondInRing NonConjugatedSingleBond NonConjugatedSingleBond NonConjugatedSingleBond NonConjugatedSingleBond AromaticDoubleBond ConjugatedSingleBond NonConjugatedSingleBond AromaticSingleBond ConjugatedSingleBond NonConjugatedSingleBond NonConjugatedSingleBond NonConjugatedSingleBond NonConjugatedSingleBond NonConjugatedSingleBond ConjugatedDoubleBond ConjugatedSingleBond ConjugatedSingleBond ConjugatedSingleBond ConjugatedSingleBond ConjugatedSingleBond ConjugatedDoubleBond ConjugatedSingleBond ConjugatedSingleBond ConjugatedDoubleBond ConjugatedDoubleBond NonConjugatedSingleBond
M  BCL CHI   2   R   7   R  13   S  17   S  35   R
M  BCL DBI - - - - - - - -
M  END
> <ConfClashScore>
0 

> <ConfOneFourInteractionScore>
-0.979765 

> <ConfScore>
-0.237694 

> <ConfScorePBest>
0.00912449 

> <ConfTolerance>
1.03882 

$$$$
ChEBI.****
  PyMOL2.5          3D                             0

 43 45  0  0  0  0  0  0  0  0999 V2000
    1.0574    0.7847    7.0926 N   0  0  0  1  0  0  0  0  0  0  0  0
    0.4759    0.6302    5.7448 C   0  0  0  1  0  0  0  0  0  0  0  0
   -0.2179    1.4241    5.5620 H   0  0  0  1  0  0  0  0  0  0  0  0
    0.8477    1.8167    7.9705 C   0  0  0  1  0  0  0  0  0  0  0  0
    1.9126   -0.0669    7.7221 C   0  0  0  1  0  0  0  0  0  0  0  0
    2.2538   -0.9444    7.2805 H   0  0  0  1  0  0  0  0  0  0  0  0
   -0.2157   -0.7297    5.6102 C   0  0  0  1  0  0  0  0  0  0  0  0
    0.1756   -1.4309    6.3175 H   0  0  0  1  0  0  0  0  0  0  0  0
    1.5160    0.6242    4.7411 O   0  0  0  1  0  0  0  0  0  0  0  0
    1.6078    1.5035    9.1055 C   0  0  0  1  0  0  0  0  0  0  0  0
    0.0746    2.8901    7.8004 N   0  0  0  1  0  0  0  0  0  0  0  0
    2.2720    0.3008    8.9219 N   0  0  0  1  0  0  0  0  0  0  0  0
    0.1139   -1.1438    4.2001 C   0  0  0  1  0  0  0  0  0  0  0  0
   -0.5796   -0.7228    3.5024 H   0  0  0  1  0  0  0  0  0  0  0  0
   -1.6271   -0.6069    5.7915 O   0  0  0  1  0  0  0  0  0  0  0  0
   -2.0797   -1.2198    5.2076 H   0  0  0  1  0  0  0  0  0  0  0  0
    1.5218   -0.5650    3.9989 C   0  0  0  1  0  0  0  0  0  0  0  0
    1.7050   -0.3649    2.9639 H   0  0  0  1  0  0  0  0  0  0  0  0
    1.5325    2.4210   10.1493 C   0  0  0  1  0  0  0  0  0  0  0  0
    0.1032    3.6803    8.8665 C   0  0  0  1  0  0  0  0  0  0  0  0
   -0.4752    4.5423    8.8031 H   0  0  0  1  0  0  0  0  0  0  0  0
    0.1183   -2.5925    4.0664 O   0  0  0  1  0  0  0  0  0  0  0  0
    2.5596   -1.5061    4.5160 C   0  0  0  1  0  0  0  0  0  0  0  0
    2.4263   -1.6536    5.5674 H   0  0  0  1  0  0  0  0  0  0  0  0
    3.5359   -1.1089    4.3319 H   0  0  0  1  0  0  0  0  0  0  0  0
    0.7778    3.5170   10.0156 N   0  0  0  1  0  0  0  0  0  0  0  0
    2.1881    2.3143   11.3711 N   0  0  0  1  0  0  0  0  0  0  0  0
    2.7407    1.5283   11.5636 H   0  0  0  1  0  0  0  0  0  0  0  0
    2.0974    3.0252   12.0395 H   0  0  0  1  0  0  0  0  0  0  0  0
   -0.4809   -3.1891    2.6612 P   0  0  0  1  0  0  0  0  0  0  0  0
    2.4005   -2.7543    3.8229 O   0  0  0  1  0  0  0  0  0  0  0  0
   -1.7163   -2.4930    2.2373 O   0  0  0  1  0  0  0  0  0  0  0  0
   -0.6840   -4.7744    2.9255 O   0  5  0  1  0  0  0  0  0  0  0  0
    0.6214   -2.9624    1.4959 O   0  5  0  1  0  0  0  0  0  0  0  0
    3.2869   -4.0616    4.0605 P   0  0  0  1  0  0  0  0  0  0  0  0
    4.7057   -3.5718    3.4468 O   0  0  0  1  0  0  0  0  0  0  0  0
    2.7151   -5.2211    3.3016 O   0  0  0  0  0  0  0  0  0  0  0  0
    3.4932   -4.2788    5.5279 O   0  0  0  1  0  0  0  0  0  0  0  0
    5.9129   -2.8871    4.3194 S   0  0  0  1  0  0  0  0  0  0  0  0
    6.0164   -3.6924    5.4989 O   0  0  0  1  0  0  0  0  0  0  0  0
    6.9388   -3.7719    5.7528 H   0  0  0  1  0  0  0  0  0  0  0  0
    7.0127   -3.0256    3.4189 O   0  0  0  1  0  0  0  0  0  0  0  0
    5.4814   -1.5478    4.5439 O   0  0  0  1  0  0  0  0  0  0  0  0
  1  2  1  0  0  0  0
  1  4  1  0  0  0  0
  1  5  1  0  0  0  0
  2  3  1  0  0  0  0
  2  7  1  0  0  0  0
  2  9  1  0  0  0  0
  4 10  2  0  0  0  0
  4 11  1  0  0  0  0
  5  6  1  0  0  0  0
  5 12  2  0  0  0  0
  7  8  1  0  0  0  0
  7 13  1  0  0  0  0
  7 15  1  0  0  0  0
  9 17  1  0  0  0  0
 10 12  1  0  0  0  0
 10 19  1  0  0  0  0
 11 20  2  0  0  0  0
 13 14  1  0  0  0  0
 13 17  1  0  0  0  0
 13 22  1  0  0  0  0
 15 16  1  0  0  0  0
 17 18  1  0  0  0  0
 17 23  1  0  0  0  0
 19 26  2  0  0  0  0
 19 27  1  0  0  0  0
 20 21  1  0  0  0  0
 20 26  1  0  0  0  0
 22 30  1  0  0  0  0
 23 24  1  0  0  0  0
 23 25  1  0  0  0  0
 23 31  1  0  0  0  0
 27 28  1  0  0  0  0
 27 29  1  0  0  0  0
 30 32  2  0  0  0  0
 30 33  1  0  0  0  0
 30 34  1  0  0  0  0
 31 35  1  0  0  0  0
 35 36  1  0  0  0  0
 35 37  1  0  0  0  0
 35 38  2  0  0  0  0
 36 39  1  0  0  0  0
 39 40  1  0  0  0  0
 39 42  2  0  0  0  0
 39 43  2  0  0  0  0
 40 41  1  0  0  0  0
M  BCL ATM N_TrTrTrPi2 C_TeTeTeTe H_S C_TrTrTrPi C_TrTrTrPi H_S C_TeTeTeTe H_S O_Te2Te2TeTe C_TrTrTrPi N_Tr2TrTrPi N_Tr2TrTrPi C_TeTeTeTe H_S O_Te2Te2TeTe H_S C_TeTeTeTe H_S C_TrTrTrPi C_TrTrTrPi H_S O_Tr2TrTrPi2 C_TeTeTeTe H_S H_S N_Tr2TrTrPi N_TrTrTrPi2 H_S H_S P_TeTeTeTePi O_Tr2TrTrPi2 O_Tr2Tr2TrPi O_Te2Te2Te2Te O_Te2Te2Te2Te P_TeTeTeTePi O_Tr2TrTrPi2 O_Te2Te2TeTe O_Tr2Tr2TrPi S_TeTeTeTePiPi O_Te2Te2TeTe H_S O_Tr2Tr2TrPi O_Tr2Tr2TrPi
M  BCL BND NonConjugatedSingleBond AromaticSingleBond AromaticSingleBond NonConjugatedSingleBond NonConjugatedSingleBondInRing NonConjugatedSingleBondInRing AromaticDoubleBond AromaticSingleBond NonConjugatedSingleBond AromaticDoubleBond NonConjugatedSingleBond NonConjugatedSingleBondInRing NonConjugatedSingleBond NonConjugatedSingleBondInRing AromaticSingleBond AromaticSingleBond AromaticDoubleBond NonConjugatedSingleBond NonConjugatedSingleBondInRing NonConjugatedSingleBond NonConjugatedSingleBond NonConjugatedSingleBond NonConjugatedSingleBond AromaticDoubleBond ConjugatedSingleBond NonConjugatedSingleBond AromaticSingleBond ConjugatedSingleBond NonConjugatedSingleBond NonConjugatedSingleBond NonConjugatedSingleBond NonConjugatedSingleBond NonConjugatedSingleBond ConjugatedDoubleBond ConjugatedSingleBond ConjugatedSingleBond ConjugatedSingleBond ConjugatedSingleBond ConjugatedSingleBond ConjugatedDoubleBond ConjugatedSingleBond ConjugatedSingleBond ConjugatedDoubleBond ConjugatedDoubleBond NonConjugatedSingleBond
M  BCL CHI   2   R   7   R  13   S  17   S  35   R
M  BCL DBI - - - - - - - -
M  END
> <ConfClashScore>
0 

> <ConfOneFourInteractionScore>
-0.979564 

> <ConfScore>
-0.235081 

> <ConfScorePBest>
0.00902149 

> <ConfTolerance>
1.18342 

$$$$
ChEBI.****
  PyMOL2.5          3D                             0

 43 45  0  0  0  0  0  0  0  0999 V2000
    1.0635    0.7863    7.1063 N   0  0  0  1  0  0  0  0  0  0  0  0
    0.4872    0.6222    5.7573 C   0  0  0  1  0  0  0  0  0  0  0  0
    0.8505    1.3986    5.1168 H   0  0  0  1  0  0  0  0  0  0  0  0
    0.8472    1.8225    7.9776 C   0  0  0  1  0  0  0  0  0  0  0  0
    1.9195   -0.0587    7.7435 C   0  0  0  1  0  0  0  0  0  0  0  0
    2.2653   -0.9375    7.3080 H   0  0  0  1  0  0  0  0  0  0  0  0
   -1.0510    0.6795    5.8323 C   0  0  0  1  0  0  0  0  0  0  0  0
   -1.3772    1.2790    6.6564 H   0  0  0  1  0  0  0  0  0  0  0  0
    0.8363   -0.6224    5.2399 O   0  0  0  1  0  0  0  0  0  0  0  0
    1.6044    1.5184    9.1169 C   0  0  0  1  0  0  0  0  0  0  0  0
    0.0709    2.8922    7.7987 N   0  0  0  1  0  0  0  0  0  0  0  0
    2.2734    0.3170    8.9424 N   0  0  0  1  0  0  0  0  0  0  0  0
   -1.4194   -0.7956    6.0372 C   0  0  0  1  0  0  0  0  0  0  0  0
   -2.3644   -1.0210    5.5889 H   0  0  0  1  0  0  0  0  0  0  0  0
   -1.6100    1.1896    4.6209 O   0  0  0  1  0  0  0  0  0  0  0  0
   -1.9003    0.4593    4.0696 H   0  0  0  1  0  0  0  0  0  0  0  0
   -0.2823   -1.5411    5.3277 C   0  0  0  1  0  0  0  0  0  0  0  0
   -0.5925   -1.8371    4.3474 H   0  0  0  1  0  0  0  0  0  0  0  0
    1.5222    2.4415   10.1553 C   0  0  0  1  0  0  0  0  0  0  0  0
    0.0930    3.6885    8.8605 C   0  0  0  1  0  0  0  0  0  0  0  0
   -0.4881    4.5481    8.7902 H   0  0  0  1  0  0  0  0  0  0  0  0
   -1.4604   -1.1307    7.4485 O   0  0  0  1  0  0  0  0  0  0  0  0
    0.1072   -2.7498    6.1135 C   0  0  0  1  0  0  0  0  0  0  0  0
    0.9176   -3.2535    5.6294 H   0  0  0  1  0  0  0  0  0  0  0  0
   -0.7273   -3.4143    6.1974 H   0  0  0  1  0  0  0  0  0  0  0  0
    0.7641    3.5340   10.0127 N   0  0  0  1  0  0  0  0  0  0  0  0
    2.1889    2.2919   11.3427 N   0  0  0  1  0  0  0  0  0  0  0  0
    2.7211    1.4857   11.5077 H   0  0  0  1  0  0  0  0  0  0  0  0
    2.1335    2.9911   12.0272 H   0  0  0  1  0  0  0  0  0  0  0  0
   -2.8273   -1.7260    8.1318 P   0  0  0  1  0  0  0  0  0  0  0  0
    0.5177   -2.3057    7.4280 O   0  0  0  1  0  0  0  0  0  0  0  0
   -3.9953   -0.8476    7.8986 O   0  0  0  1  0  0  0  0  0  0  0  0
   -2.5139   -1.6881    9.7208 O   0  5  0  1  0  0  0  0  0  0  0  0
   -2.8691   -3.3068    7.7801 O   0  5  0  1  0  0  0  0  0  0  0  0
    0.6747   -3.3463    8.6336 P   0  0  0  1  0  0  0  0  0  0  0  0
    0.7520   -2.3898   10.0076 O   0  0  0  1  0  0  0  0  0  0  0  0
    1.9911   -4.0206    8.5848 O   0  0  0  0  0  0  0  0  0  0  0  0
   -0.5713   -4.1407    8.6202 O   0  0  0  1  0  0  0  0  0  0  0  0
    0.2119   -0.9723   10.5082 S   0  0  0  1  0  0  0  0  0  0  0  0
   -0.2435   -0.2639    9.3282 O   0  0  0  1  0  0  0  0  0  0  0  0
   -1.1595   -0.0015    9.4455 H   0  0  0  1  0  0  0  0  0  0  0  0
   -0.8695   -1.2476   11.4253 O   0  0  0  1  0  0  0  0  0  0  0  0
    1.3839   -0.4064   11.1162 O   0  0  0  1  0  0  0  0  0  0  0  0
  1  2  1  0  0  0  0
  1  4  1  0  0  0  0
  1  5  1  0  0  0  0
  2  3  1  0  0  0  0
  2  7  1  0  0  0  0
  2  9  1  0  0  0  0
  4 10  2  0  0  0  0
  4 11  1  0  0  0  0
  5  6  1  0  0  0  0
  5 12  2  0  0  0  0
  7  8  1  0  0  0  0
  7 13  1  0  0  0  0
  7 15  1  0  0  0  0
  9 17  1  0  0  0  0
 10 12  1  0  0  0  0
 10 19  1  0  0  0  0
 11 20  2  0  0  0  0
 13 14  1  0  0  0  0
 13 17  1  0  0  0  0
 13 22  1  0  0  0  0
 15 16  1  0  0  0  0
 17 18  1  0  0  0  0
 17 23  1  0  0  0  0
 19 26  2  0  0  0  0
 19 27  1  0  0  0  0
 20 21  1  0  0  0  0
 20 26  1  0  0  0  0
 22 30  1  0  0  0  0
 23 24  1  0  0  0  0
 23 25  1  0  0  0  0
 23 31  1  0  0  0  0
 27 28  1  0  0  0  0
 27 29  1  0  0  0  0
 30 32  2  0  0  0  0
 30 33  1  0  0  0  0
 30 34  1  0  0  0  0
 31 35  1  0  0  0  0
 35 36  1  0  0  0  0
 35 37  1  0  0  0  0
 35 38  2  0  0  0  0
 36 39  1  0  0  0  0
 39 40  1  0  0  0  0
 39 42  2  0  0  0  0
 39 43  2  0  0  0  0
 40 41  1  0  0  0  0
M  BCL ATM N_TrTrTrPi2 C_TeTeTeTe H_S C_TrTrTrPi C_TrTrTrPi H_S C_TeTeTeTe H_S O_Te2Te2TeTe C_TrTrTrPi N_Tr2TrTrPi N_Tr2TrTrPi C_TeTeTeTe H_S O_Te2Te2TeTe H_S C_TeTeTeTe H_S C_TrTrTrPi C_TrTrTrPi H_S O_Tr2TrTrPi2 C_TeTeTeTe H_S H_S N_Tr2TrTrPi N_TrTrTrPi2 H_S H_S P_TeTeTeTePi O_Tr2TrTrPi2 O_Tr2Tr2TrPi O_Te2Te2Te2Te O_Te2Te2Te2Te P_TeTeTeTePi O_Tr2TrTrPi2 O_Te2Te2TeTe O_Tr2Tr2TrPi S_TeTeTeTePiPi O_Te2Te2TeTe H_S O_Tr2Tr2TrPi O_Tr2Tr2TrPi
M  BCL BND NonConjugatedSingleBond AromaticSingleBond AromaticSingleBond NonConjugatedSingleBond NonConjugatedSingleBondInRing NonConjugatedSingleBondInRing AromaticDoubleBond AromaticSingleBond NonConjugatedSingleBond AromaticDoubleBond NonConjugatedSingleBond NonConjugatedSingleBondInRing NonConjugatedSingleBond NonConjugatedSingleBondInRing AromaticSingleBond AromaticSingleBond AromaticDoubleBond NonConjugatedSingleBond NonConjugatedSingleBondInRing NonConjugatedSingleBond NonConjugatedSingleBond NonConjugatedSingleBond NonConjugatedSingleBond AromaticDoubleBond ConjugatedSingleBond NonConjugatedSingleBond AromaticSingleBond ConjugatedSingleBond NonConjugatedSingleBond NonConjugatedSingleBond NonConjugatedSingleBond NonConjugatedSingleBond NonConjugatedSingleBond ConjugatedDoubleBond ConjugatedSingleBond ConjugatedSingleBond ConjugatedSingleBond ConjugatedSingleBond ConjugatedSingleBond ConjugatedDoubleBond ConjugatedSingleBond ConjugatedSingleBond ConjugatedDoubleBond ConjugatedDoubleBond NonConjugatedSingleBond
M  BCL CHI   2   R   7   R  13   S  17   S  35   R
M  BCL DBI - - - - - - - -
M  END
> <ConfClashScore>
5.63144e-05 

> <ConfOneFourInteractionScore>
-0.987405 

> <ConfScore>
-0.234499 

> <ConfScorePBest>
0.00891849 

> <ConfTolerance>
1.27664 

$$$$
ChEBI.****
  PyMOL2.5          3D                             0

 43 45  0  0  0  0  0  0  0  0999 V2000
    1.0504    0.7762    7.1241 N   0  0  0  1  0  0  0  0  0  0  0  0
    0.5536    0.6532    5.7522 C   0  0  0  1  0  0  0  0  0  0  0  0
   -0.4860    0.4005    5.7702 H   0  0  0  1  0  0  0  0  0  0  0  0
    0.8343    1.8206    7.9855 C   0  0  0  1  0  0  0  0  0  0  0  0
    1.9090   -0.0612    7.7678 C   0  0  0  1  0  0  0  0  0  0  0  0
    2.2553   -0.9437    7.3403 H   0  0  0  1  0  0  0  0  0  0  0  0
    1.3475   -0.4104    4.9913 C   0  0  0  1  0  0  0  0  0  0  0  0
    2.3550   -0.4769    5.3455 H   0  0  0  1  0  0  0  0  0  0  0  0
    0.7572    1.8768    5.0364 O   0  0  0  1  0  0  0  0  0  0  0  0
    1.5944    1.5290    9.1262 C   0  0  0  1  0  0  0  0  0  0  0  0
    0.0560    2.8873    7.7976 N   0  0  0  1  0  0  0  0  0  0  0  0
    2.2649    0.3269    8.9622 N   0  0  0  1  0  0  0  0  0  0  0  0
    1.2887    0.1417    3.5746 C   0  0  0  1  0  0  0  0  0  0  0  0
    0.3957   -0.1830    3.0826 H   0  0  0  1  0  0  0  0  0  0  0  0
    0.7252   -1.6930    5.0805 O   0  0  0  1  0  0  0  0  0  0  0  0
    0.6204   -2.0602    4.1997 H   0  0  0  1  0  0  0  0  0  0  0  0
    1.2895    1.6007    3.7278 C   0  0  0  1  0  0  0  0  0  0  0  0
    0.6746    2.0510    2.9767 H   0  0  0  1  0  0  0  0  0  0  0  0
    1.5130    2.4622   10.1555 C   0  0  0  1  0  0  0  0  0  0  0  0
    0.0791    3.6941    8.8514 C   0  0  0  1  0  0  0  0  0  0  0  0
   -0.5035    4.5521    8.7739 H   0  0  0  1  0  0  0  0  0  0  0  0
    2.4435   -0.2890    2.8142 O   0  0  0  1  0  0  0  0  0  0  0  0
    2.6884    2.1324    3.6151 C   0  0  0  1  0  0  0  0  0  0  0  0
    3.3459    1.6240    4.2891 H   0  0  0  1  0  0  0  0  0  0  0  0
    2.7151    3.1832    3.8148 H   0  0  0  1  0  0  0  0  0  0  0  0
    0.7529    3.5521   10.0037 N   0  0  0  1  0  0  0  0  0  0  0  0
    2.2041    2.2758   11.3236 N   0  0  0  1  0  0  0  0  0  0  0  0
    2.7552    1.4745   11.4444 H   0  0  0  1  0  0  0  0  0  0  0  0
    2.1473    2.9438   12.0385 H   0  0  0  1  0  0  0  0  0  0  0  0
    2.2703   -1.5327    1.7592 P   0  0  0  1  0  0  0  0  0  0  0  0
    3.0453    1.8584    2.2399 O   0  0  0  1  0  0  0  0  0  0  0  0
    1.2959   -2.4797    2.3460 O   0  0  0  1  0  0  0  0  0  0  0  0
    3.7165   -2.0629    1.2577 O   0  5  0  1  0  0  0  0  0  0  0  0
    1.5493   -0.7377    0.5457 O   0  5  0  1  0  0  0  0  0  0  0  0
    4.4777    2.3419    1.6375 P   0  0  0  1  0  0  0  0  0  0  0  0
    4.5253    3.9330    1.9363 O   0  0  0  1  0  0  0  0  0  0  0  0
    4.5169    2.2188    0.1693 O   0  0  0  0  0  0  0  0  0  0  0  0
    5.4492    1.6226    2.4406 O   0  0  0  1  0  0  0  0  0  0  0  0
    4.8149    5.0560    0.8377 S   0  0  0  1  0  0  0  0  0  0  0  0
    5.1567    4.3579   -0.3860 O   0  0  0  1  0  0  0  0  0  0  0  0
    6.0058    3.9227   -0.2801 H   0  0  0  1  0  0  0  0  0  0  0  0
    3.5963    5.8196    0.7030 O   0  0  0  1  0  0  0  0  0  0  0  0
    5.9097    5.7737    1.4291 O   0  0  0  1  0  0  0  0  0  0  0  0
  1  2  1  0  0  0  0
  1  4  1  0  0  0  0
  1  5  1  0  0  0  0
  2  3  1  0  0  0  0
  2  7  1  0  0  0  0
  2  9  1  0  0  0  0
  4 10  2  0  0  0  0
  4 11  1  0  0  0  0
  5  6  1  0  0  0  0
  5 12  2  0  0  0  0
  7  8  1  0  0  0  0
  7 13  1  0  0  0  0
  7 15  1  0  0  0  0
  9 17  1  0  0  0  0
 10 12  1  0  0  0  0
 10 19  1  0  0  0  0
 11 20  2  0  0  0  0
 13 14  1  0  0  0  0
 13 17  1  0  0  0  0
 13 22  1  0  0  0  0
 15 16  1  0  0  0  0
 17 18  1  0  0  0  0
 17 23  1  0  0  0  0
 19 26  2  0  0  0  0
 19 27  1  0  0  0  0
 20 21  1  0  0  0  0
 20 26  1  0  0  0  0
 22 30  1  0  0  0  0
 23 24  1  0  0  0  0
 23 25  1  0  0  0  0
 23 31  1  0  0  0  0
 27 28  1  0  0  0  0
 27 29  1  0  0  0  0
 30 32  2  0  0  0  0
 30 33  1  0  0  0  0
 30 34  1  0  0  0  0
 31 35  1  0  0  0  0
 35 36  1  0  0  0  0
 35 37  1  0  0  0  0
 35 38  2  0  0  0  0
 36 39  1  0  0  0  0
 39 40  1  0  0  0  0
 39 42  2  0  0  0  0
 39 43  2  0  0  0  0
 40 41  1  0  0  0  0
M  BCL ATM N_TrTrTrPi2 C_TeTeTeTe H_S C_TrTrTrPi C_TrTrTrPi H_S C_TeTeTeTe H_S O_Te2Te2TeTe C_TrTrTrPi N_Tr2TrTrPi N_Tr2TrTrPi C_TeTeTeTe H_S O_Te2Te2TeTe H_S C_TeTeTeTe H_S C_TrTrTrPi C_TrTrTrPi H_S O_Tr2TrTrPi2 C_TeTeTeTe H_S H_S N_Tr2TrTrPi N_TrTrTrPi2 H_S H_S P_TeTeTeTePi O_Tr2TrTrPi2 O_Tr2Tr2TrPi O_Te2Te2Te2Te O_Te2Te2Te2Te P_TeTeTeTePi O_Tr2TrTrPi2 O_Te2Te2TeTe O_Tr2Tr2TrPi S_TeTeTeTePiPi O_Te2Te2TeTe H_S O_Tr2Tr2TrPi O_Tr2Tr2TrPi
M  BCL BND NonConjugatedSingleBond AromaticSingleBond AromaticSingleBond NonConjugatedSingleBond NonConjugatedSingleBondInRing NonConjugatedSingleBondInRing AromaticDoubleBond AromaticSingleBond NonConjugatedSingleBond AromaticDoubleBond NonConjugatedSingleBond NonConjugatedSingleBondInRing NonConjugatedSingleBond NonConjugatedSingleBondInRing AromaticSingleBond AromaticSingleBond AromaticDoubleBond NonConjugatedSingleBond NonConjugatedSingleBondInRing NonConjugatedSingleBond NonConjugatedSingleBond NonConjugatedSingleBond NonConjugatedSingleBond AromaticDoubleBond ConjugatedSingleBond NonConjugatedSingleBond AromaticSingleBond ConjugatedSingleBond NonConjugatedSingleBond NonConjugatedSingleBond NonConjugatedSingleBond NonConjugatedSingleBond NonConjugatedSingleBond ConjugatedDoubleBond ConjugatedSingleBond ConjugatedSingleBond ConjugatedSingleBond ConjugatedSingleBond ConjugatedSingleBond ConjugatedDoubleBond ConjugatedSingleBond ConjugatedSingleBond ConjugatedDoubleBond ConjugatedDoubleBond NonConjugatedSingleBond
M  BCL CHI   2   R   7   R  13   S  17   S  35   R
M  BCL DBI - - - - - - - -
M  END
> <ConfClashScore>
0 

> <ConfOneFourInteractionScore>
-0.981576 

> <ConfScore>
-0.232948 

> <ConfScorePBest>
0.00881549 

> <ConfTolerance>
1.28647 

$$$$
ChEBI.****
  PyMOL2.5          3D                             0

 43 45  0  0  0  0  0  0  0  0999 V2000
    1.0860    0.8025    7.0921 N   0  0  0  1  0  0  0  0  0  0  0  0
    0.3940    0.5547    5.8121 C   0  0  0  1  0  0  0  0  0  0  0  0
    0.7648    1.2296    5.0691 H   0  0  0  1  0  0  0  0  0  0  0  0
    0.8645    1.8351    7.9664 C   0  0  0  1  0  0  0  0  0  0  0  0
    1.9328   -0.0485    7.7336 C   0  0  0  1  0  0  0  0  0  0  0  0
    2.2801   -0.9263    7.2972 H   0  0  0  1  0  0  0  0  0  0  0  0
   -1.1250    0.7079    5.9764 C   0  0  0  1  0  0  0  0  0  0  0  0
   -1.4434    0.3803    6.9440 H   0  0  0  1  0  0  0  0  0  0  0  0
    0.5652   -0.7755    5.4044 O   0  0  0  1  0  0  0  0  0  0  0  0
    1.6093    1.5230    9.1116 C   0  0  0  1  0  0  0  0  0  0  0  0
    0.0935    2.9083    7.7851 N   0  0  0  1  0  0  0  0  0  0  0  0
    2.2762    0.3202    8.9378 N   0  0  0  1  0  0  0  0  0  0  0  0
   -1.6668   -0.1886    4.8941 C   0  0  0  1  0  0  0  0  0  0  0  0
   -1.7144    0.3263    3.9573 H   0  0  0  1  0  0  0  0  0  0  0  0
   -1.5308    2.0624    5.7742 O   0  0  0  1  0  0  0  0  0  0  0  0
   -2.0809    2.1183    4.9894 H   0  0  0  1  0  0  0  0  0  0  0  0
   -0.6460   -1.3292    4.8428 C   0  0  0  1  0  0  0  0  0  0  0  0
   -0.4828   -1.6420    3.8326 H   0  0  0  1  0  0  0  0  0  0  0  0
    1.5200    2.4413   10.1536 C   0  0  0  1  0  0  0  0  0  0  0  0
    0.1077    3.6993    8.8509 C   0  0  0  1  0  0  0  0  0  0  0  0
   -0.4698    4.5612    8.7791 H   0  0  0  1  0  0  0  0  0  0  0  0
   -2.9849   -0.6852    5.2412 O   0  0  0  1  0  0  0  0  0  0  0  0
   -1.1168   -2.4909    5.6544 C   0  0  0  1  0  0  0  0  0  0  0  0
   -1.2276   -2.1994    6.6779 H   0  0  0  1  0  0  0  0  0  0  0  0
   -0.4119   -3.2930    5.5858 H   0  0  0  1  0  0  0  0  0  0  0  0
    0.7670    3.5370   10.0089 N   0  0  0  1  0  0  0  0  0  0  0  0
    2.1790    2.2826   11.3550 N   0  0  0  1  0  0  0  0  0  0  0  0
    2.7823    1.5216   11.4862 H   0  0  0  1  0  0  0  0  0  0  0  0
    2.0437    2.9309   12.0774 H   0  0  0  1  0  0  0  0  0  0  0  0
   -4.2834    0.3165    5.2573 P   0  0  0  1  0  0  0  0  0  0  0  0
   -2.3946   -2.9109    5.1206 O   0  0  0  1  0  0  0  0  0  0  0  0
   -4.7230    0.8415    3.9453 O   0  0  0  1  0  0  0  0  0  0  0  0
   -3.8403    1.4180    6.3595 O   0  5  0  1  0  0  0  0  0  0  0  0
   -5.3676   -0.5625    6.0796 O   0  5  0  1  0  0  0  0  0  0  0  0
   -3.1499   -4.2610    5.5928 P   0  0  0  1  0  0  0  0  0  0  0  0
   -2.0510   -5.4084    5.2682 O   0  0  0  1  0  0  0  0  0  0  0  0
   -4.4058   -4.3746    4.7741 O   0  0  0  0  0  0  0  0  0  0  0  0
   -3.3935   -4.1541    7.0186 O   0  0  0  1  0  0  0  0  0  0  0  0
   -2.2585   -6.5948    4.2188 S   0  0  0  1  0  0  0  0  0  0  0  0
   -1.2618   -7.5973    4.5279 O   0  0  0  1  0  0  0  0  0  0  0  0
   -1.6744   -8.3246    4.9995 H   0  0  0  1  0  0  0  0  0  0  0  0
   -3.5932   -7.0840    4.4175 O   0  0  0  1  0  0  0  0  0  0  0  0
   -2.0455   -5.9204    2.9610 O   0  0  0  1  0  0  0  0  0  0  0  0
  1  2  1  0  0  0  0
  1  4  1  0  0  0  0
  1  5  1  0  0  0  0
  2  3  1  0  0  0  0
  2  7  1  0  0  0  0
  2  9  1  0  0  0  0
  4 10  2  0  0  0  0
  4 11  1  0  0  0  0
  5  6  1  0  0  0  0
  5 12  2  0  0  0  0
  7  8  1  0  0  0  0
  7 13  1  0  0  0  0
  7 15  1  0  0  0  0
  9 17  1  0  0  0  0
 10 12  1  0  0  0  0
 10 19  1  0  0  0  0
 11 20  2  0  0  0  0
 13 14  1  0  0  0  0
 13 17  1  0  0  0  0
 13 22  1  0  0  0  0
 15 16  1  0  0  0  0
 17 18  1  0  0  0  0
 17 23  1  0  0  0  0
 19 26  2  0  0  0  0
 19 27  1  0  0  0  0
 20 21  1  0  0  0  0
 20 26  1  0  0  0  0
 22 30  1  0  0  0  0
 23 24  1  0  0  0  0
 23 25  1  0  0  0  0
 23 31  1  0  0  0  0
 27 28  1  0  0  0  0
 27 29  1  0  0  0  0
 30 32  2  0  0  0  0
 30 33  1  0  0  0  0
 30 34  1  0  0  0  0
 31 35  1  0  0  0  0
 35 36  1  0  0  0  0
 35 37  1  0  0  0  0
 35 38  2  0  0  0  0
 36 39  1  0  0  0  0
 39 40  1  0  0  0  0
 39 42  2  0  0  0  0
 39 43  2  0  0  0  0
 40 41  1  0  0  0  0
M  BCL ATM N_TrTrTrPi2 C_TeTeTeTe H_S C_TrTrTrPi C_TrTrTrPi H_S C_TeTeTeTe H_S O_Te2Te2TeTe C_TrTrTrPi N_Tr2TrTrPi N_Tr2TrTrPi C_TeTeTeTe H_S O_Te2Te2TeTe H_S C_TeTeTeTe H_S C_TrTrTrPi C_TrTrTrPi H_S O_Tr2TrTrPi2 C_TeTeTeTe H_S H_S N_Tr2TrTrPi N_TrTrTrPi2 H_S H_S P_TeTeTeTePi O_Tr2TrTrPi2 O_Tr2Tr2TrPi O_Te2Te2Te2Te O_Te2Te2Te2Te P_TeTeTeTePi O_Tr2TrTrPi2 O_Te2Te2TeTe O_Tr2Tr2TrPi S_TeTeTeTePiPi O_Te2Te2TeTe H_S O_Tr2Tr2TrPi O_Tr2Tr2TrPi
M  BCL BND NonConjugatedSingleBond AromaticSingleBond AromaticSingleBond NonConjugatedSingleBond NonConjugatedSingleBondInRing NonConjugatedSingleBondInRing AromaticDoubleBond AromaticSingleBond NonConjugatedSingleBond AromaticDoubleBond NonConjugatedSingleBond NonConjugatedSingleBondInRing NonConjugatedSingleBond NonConjugatedSingleBondInRing AromaticSingleBond AromaticSingleBond AromaticDoubleBond NonConjugatedSingleBond NonConjugatedSingleBondInRing NonConjugatedSingleBond NonConjugatedSingleBond NonConjugatedSingleBond NonConjugatedSingleBond AromaticDoubleBond ConjugatedSingleBond NonConjugatedSingleBond AromaticSingleBond ConjugatedSingleBond NonConjugatedSingleBond NonConjugatedSingleBond NonConjugatedSingleBond NonConjugatedSingleBond NonConjugatedSingleBond ConjugatedDoubleBond ConjugatedSingleBond ConjugatedSingleBond ConjugatedSingleBond ConjugatedSingleBond ConjugatedSingleBond ConjugatedDoubleBond ConjugatedSingleBond ConjugatedSingleBond ConjugatedDoubleBond ConjugatedDoubleBond NonConjugatedSingleBond
M  BCL CHI   2   R   7   R  13   S  17   S  35   R
M  BCL DBI - - - - - - - -
M  END
> <ConfClashScore>
0 

> <ConfOneFourInteractionScore>
-0.981627 

> <ConfScore>
-0.231827 

> <ConfScorePBest>
0.00871249 

> <ConfTolerance>
1.11743 

$$$$
ChEBI.****
  PyMOL2.5          3D                             0

 43 45  0  0  0  0  0  0  0  0999 V2000
    1.0744    0.7903    7.1027 N   0  0  0  1  0  0  0  0  0  0  0  0
    0.5041    0.6262    5.7652 C   0  0  0  1  0  0  0  0  0  0  0  0
   -0.5631    0.6767    5.8233 H   0  0  0  1  0  0  0  0  0  0  0  0
    0.8472    1.8209    7.9779 C   0  0  0  1  0  0  0  0  0  0  0  0
    1.9401   -0.0475    7.7363 C   0  0  0  1  0  0  0  0  0  0  0  0
    2.2954   -0.9208    7.2974 H   0  0  0  1  0  0  0  0  0  0  0  0
    0.9346   -0.7299    5.1730 C   0  0  0  1  0  0  0  0  0  0  0  0
    1.1119   -1.4510    5.9434 H   0  0  0  1  0  0  0  0  0  0  0  0
    0.9814    1.6241    4.9197 O   0  0  0  1  0  0  0  0  0  0  0  0
    1.6085    1.5210    9.1157 C   0  0  0  1  0  0  0  0  0  0  0  0
    0.0590    2.8826    7.8034 N   0  0  0  1  0  0  0  0  0  0  0  0
    2.2907    0.3277    8.9364 N   0  0  0  1  0  0  0  0  0  0  0  0
    2.2335   -0.3654    4.4425 C   0  0  0  1  0  0  0  0  0  0  0  0
    2.3740   -0.9814    3.5789 H   0  0  0  1  0  0  0  0  0  0  0  0
   -0.0464   -1.2335    4.2652 O   0  0  0  1  0  0  0  0  0  0  0  0
   -0.6806   -1.7715    4.7448 H   0  0  0  1  0  0  0  0  0  0  0  0
    2.0106    1.0985    4.0436 C   0  0  0  1  0  0  0  0  0  0  0  0
    1.6904    1.1569    3.0243 H   0  0  0  1  0  0  0  0  0  0  0  0
    1.5168    2.4394   10.1574 C   0  0  0  1  0  0  0  0  0  0  0  0
    0.0730    3.6752    8.8680 C   0  0  0  1  0  0  0  0  0  0  0  0
   -0.5176    4.5286    8.8012 H   0  0  0  1  0  0  0  0  0  0  0  0
    3.3876   -0.4972    5.3284 O   0  0  0  1  0  0  0  0  0  0  0  0
    3.2749    1.8747    4.2142 C   0  0  0  1  0  0  0  0  0  0  0  0
    4.0640    1.4125    3.6588 H   0  0  0  1  0  0  0  0  0  0  0  0
    3.5419    1.9132    5.2496 H   0  0  0  1  0  0  0  0  0  0  0  0
    0.7466    3.5240   10.0193 N   0  0  0  1  0  0  0  0  0  0  0  0
    2.1832    2.2935   11.3391 N   0  0  0  1  0  0  0  0  0  0  0  0
    2.0370    2.9339   12.0664 H   0  0  0  1  0  0  0  0  0  0  0  0
    2.8079    1.5483   11.4606 H   0  0  0  1  0  0  0  0  0  0  0  0
    4.8371   -1.0027    4.7513 P   0  0  0  1  0  0  0  0  0  0  0  0
    3.0396    3.2129    3.7158 O   0  0  0  1  0  0  0  0  0  0  0  0
    4.8172   -0.5517    3.3418 O   0  0  0  1  0  0  0  0  0  0  0  0
    4.7630   -2.6164    4.8735 O   0  5  0  1  0  0  0  0  0  0  0  0
    6.0462   -0.4708    5.6892 O   0  5  0  1  0  0  0  0  0  0  0  0
    4.2699    4.2361    3.4730 P   0  0  0  1  0  0  0  0  0  0  0  0
    3.6673    5.6948    3.8452 O   0  0  0  1  0  0  0  0  0  0  0  0
    4.5472    4.3159    2.0046 O   0  0  0  0  0  0  0  0  0  0  0  0
    5.3188    3.7940    4.4084 O   0  0  0  1  0  0  0  0  0  0  0  0
    4.3302    7.0467    3.4680 S   0  0  0  1  0  0  0  0  0  0  0  0
    4.2828    7.7940    4.7410 O   0  0  0  1  0  0  0  0  0  0  0  0
    4.8886    7.3948    5.3696 H   0  0  0  1  0  0  0  0  0  0  0  0
    5.7093    6.8140    3.0429 O   0  0  0  1  0  0  0  0  0  0  0  0
    3.5465    7.6578    2.4307 O   0  0  0  1  0  0  0  0  0  0  0  0
  1  2  1  0  0  0  0
  1  4  1  0  0  0  0
  1  5  1  0  0  0  0
  2  3  1  0  0  0  0
  2  7  1  0  0  0  0
  2  9  1  0  0  0  0
  4 10  2  0  0  0  0
  4 11  1  0  0  0  0
  5  6  1  0  0  0  0
  5 12  2  0  0  0  0
  7  8  1  0  0  0  0
  7 13  1  0  0  0  0
  7 15  1  0  0  0  0
  9 17  1  0  0  0  0
 10 12  1  0  0  0  0
 10 19  1  0  0  0  0
 11 20  2  0  0  0  0
 13 14  1  0  0  0  0
 13 17  1  0  0  0  0
 13 22  1  0  0  0  0
 15 16  1  0  0  0  0
 17 18  1  0  0  0  0
 17 23  1  0  0  0  0
 19 26  2  0  0  0  0
 19 27  1  0  0  0  0
 20 21  1  0  0  0  0
 20 26  1  0  0  0  0
 22 30  1  0  0  0  0
 23 24  1  0  0  0  0
 23 25  1  0  0  0  0
 23 31  1  0  0  0  0
 27 28  1  0  0  0  0
 27 29  1  0  0  0  0
 30 32  2  0  0  0  0
 30 33  1  0  0  0  0
 30 34  1  0  0  0  0
 31 35  1  0  0  0  0
 35 36  1  0  0  0  0
 35 37  1  0  0  0  0
 35 38  2  0  0  0  0
 36 39  1  0  0  0  0
 39 40  1  0  0  0  0
 39 42  2  0  0  0  0
 39 43  2  0  0  0  0
 40 41  1  0  0  0  0
M  BCL ATM N_TrTrTrPi2 C_TeTeTeTe H_S C_TrTrTrPi C_TrTrTrPi H_S C_TeTeTeTe H_S O_Te2Te2TeTe C_TrTrTrPi N_Tr2TrTrPi N_Tr2TrTrPi C_TeTeTeTe H_S O_Te2Te2TeTe H_S C_TeTeTeTe H_S C_TrTrTrPi C_TrTrTrPi H_S O_Tr2TrTrPi2 C_TeTeTeTe H_S H_S N_Tr2TrTrPi N_TrTrTrPi2 H_S H_S P_TeTeTeTePi O_Tr2TrTrPi2 O_Tr2Tr2TrPi O_Te2Te2Te2Te O_Te2Te2Te2Te P_TeTeTeTePi O_Tr2TrTrPi2 O_Te2Te2TeTe O_Tr2Tr2TrPi S_TeTeTeTePiPi O_Te2Te2TeTe H_S O_Tr2Tr2TrPi O_Tr2Tr2TrPi
M  BCL BND NonConjugatedSingleBond AromaticSingleBond AromaticSingleBond NonConjugatedSingleBond NonConjugatedSingleBondInRing NonConjugatedSingleBondInRing AromaticDoubleBond AromaticSingleBond NonConjugatedSingleBond AromaticDoubleBond NonConjugatedSingleBond NonConjugatedSingleBondInRing NonConjugatedSingleBond NonConjugatedSingleBondInRing AromaticSingleBond AromaticSingleBond AromaticDoubleBond NonConjugatedSingleBond NonConjugatedSingleBondInRing NonConjugatedSingleBond NonConjugatedSingleBond NonConjugatedSingleBond NonConjugatedSingleBond AromaticDoubleBond ConjugatedSingleBond NonConjugatedSingleBond AromaticSingleBond ConjugatedSingleBond NonConjugatedSingleBond NonConjugatedSingleBond NonConjugatedSingleBond NonConjugatedSingleBond NonConjugatedSingleBond ConjugatedDoubleBond ConjugatedSingleBond ConjugatedSingleBond ConjugatedSingleBond ConjugatedSingleBond ConjugatedSingleBond ConjugatedDoubleBond ConjugatedSingleBond ConjugatedSingleBond ConjugatedDoubleBond ConjugatedDoubleBond NonConjugatedSingleBond
M  BCL CHI   2   R   7   R  13   S  17   S  35   R
M  BCL DBI - - - - - - - -
M  END
> <ConfClashScore>
0 

> <ConfOneFourInteractionScore>
-0.979564 

> <ConfScore>
-0.229526 

> <ConfScorePBest>
0.00860949 

> <ConfTolerance>
1.17583 

$$$$
ChEBI.****
  PyMOL2.5          3D                             0

 43 45  0  0  0  0  0  0  0  0999 V2000
    1.0691    0.7866    7.1054 N   0  0  0  1  0  0  0  0  0  0  0  0
    0.4936    0.6205    5.7563 C   0  0  0  1  0  0  0  0  0  0  0  0
    1.0025   -0.1702    5.2458 H   0  0  0  1  0  0  0  0  0  0  0  0
    0.8474    1.8209    7.9776 C   0  0  0  1  0  0  0  0  0  0  0  0
    1.9294   -0.0545    7.7420 C   0  0  0  1  0  0  0  0  0  0  0  0
    2.2799   -0.9311    7.3057 H   0  0  0  1  0  0  0  0  0  0  0  0
    0.6061    1.9249    4.9648 C   0  0  0  1  0  0  0  0  0  0  0  0
    0.5660    2.7793    5.6078 H   0  0  0  1  0  0  0  0  0  0  0  0
   -0.9076    0.3378    5.8431 O   0  0  0  1  0  0  0  0  0  0  0  0
    1.6062    1.5199    9.1166 C   0  0  0  1  0  0  0  0  0  0  0  0
    0.0655    2.8867    7.7996 N   0  0  0  1  0  0  0  0  0  0  0  0
    2.2815    0.3221    8.9412 N   0  0  0  1  0  0  0  0  0  0  0  0
   -0.6277    1.8343    4.0790 C   0  0  0  1  0  0  0  0  0  0  0  0
   -0.4097    1.2831    3.1881 H   0  0  0  1  0  0  0  0  0  0  0  0
    1.8056    1.9667    4.1906 O   0  0  0  1  0  0  0  0  0  0  0  0
    2.2490    2.8064    4.3316 H   0  0  0  1  0  0  0  0  0  0  0  0
   -1.6318    1.1314    4.8851 C   0  0  0  1  0  0  0  0  0  0  0  0
   -2.2308    0.5013    4.2614 H   0  0  0  1  0  0  0  0  0  0  0  0
    1.5193    2.4417   10.1557 C   0  0  0  1  0  0  0  0  0  0  0  0
    0.0835    3.6822    8.8620 C   0  0  0  1  0  0  0  0  0  0  0  0
   -0.5021    4.5389    8.7924 H   0  0  0  1  0  0  0  0  0  0  0  0
   -1.0969    3.1580    3.7258 O   0  0  0  1  0  0  0  0  0  0  0  0
   -2.5083    2.1149    5.5884 C   0  0  0  1  0  0  0  0  0  0  0  0
   -1.9119    2.7726    6.1856 H   0  0  0  1  0  0  0  0  0  0  0  0
   -3.2063    1.5988    6.2140 H   0  0  0  1  0  0  0  0  0  0  0  0
    0.7555    3.5304   10.0141 N   0  0  0  1  0  0  0  0  0  0  0  0
    2.1867    2.2947   11.3430 N   0  0  0  1  0  0  0  0  0  0  0  0
    2.1670    3.0138   12.0086 H   0  0  0  1  0  0  0  0  0  0  0  0
    2.6839    1.4704   11.5269 H   0  0  0  1  0  0  0  0  0  0  0  0
   -0.3390    3.9630    2.5146 P   0  0  0  1  0  0  0  0  0  0  0  0
   -3.2169    2.8721    4.5793 O   0  0  0  1  0  0  0  0  0  0  0  0
    1.1192    4.0357    2.7565 O   0  0  0  1  0  0  0  0  0  0  0  0
   -1.1234    5.3784    2.4388 O   0  5  0  1  0  0  0  0  0  0  0  0
   -0.8154    3.1260    1.2119 O   0  5  0  1  0  0  0  0  0  0  0  0
   -4.1122    4.1669    4.9170 P   0  0  0  1  0  0  0  0  0  0  0  0
   -2.9581    5.0769    5.7226 O   0  0  0  1  0  0  0  0  0  0  0  0
   -5.1144    3.6726    5.8927 O   0  0  0  0  0  0  0  0  0  0  0  0
   -4.5513    4.8423    3.6744 O   0  0  0  1  0  0  0  0  0  0  0  0
   -2.3777    6.5788    5.6999 S   0  0  0  1  0  0  0  0  0  0  0  0
   -2.5034    6.9268    7.1049 O   0  0  0  1  0  0  0  0  0  0  0  0
   -3.4299    6.9172    7.3558 H   0  0  0  1  0  0  0  0  0  0  0  0
   -1.0098    6.4899    5.2418 O   0  0  0  1  0  0  0  0  0  0  0  0
   -3.2097    7.3396    4.8057 O   0  0  0  1  0  0  0  0  0  0  0  0
  1  2  1  0  0  0  0
  1  4  1  0  0  0  0
  1  5  1  0  0  0  0
  2  3  1  0  0  0  0
  2  7  1  0  0  0  0
  2  9  1  0  0  0  0
  4 10  2  0  0  0  0
  4 11  1  0  0  0  0
  5  6  1  0  0  0  0
  5 12  2  0  0  0  0
  7  8  1  0  0  0  0
  7 13  1  0  0  0  0
  7 15  1  0  0  0  0
  9 17  1  0  0  0  0
 10 12  1  0  0  0  0
 10 19  1  0  0  0  0
 11 20  2  0  0  0  0
 13 14  1  0  0  0  0
 13 17  1  0  0  0  0
 13 22  1  0  0  0  0
 15 16  1  0  0  0  0
 17 18  1  0  0  0  0
 17 23  1  0  0  0  0
 19 26  2  0  0  0  0
 19 27  1  0  0  0  0
 20 21  1  0  0  0  0
 20 26  1  0  0  0  0
 22 30  1  0  0  0  0
 23 24  1  0  0  0  0
 23 25  1  0  0  0  0
 23 31  1  0  0  0  0
 27 28  1  0  0  0  0
 27 29  1  0  0  0  0
 30 32  2  0  0  0  0
 30 33  1  0  0  0  0
 30 34  1  0  0  0  0
 31 35  1  0  0  0  0
 35 36  1  0  0  0  0
 35 37  1  0  0  0  0
 35 38  2  0  0  0  0
 36 39  1  0  0  0  0
 39 40  1  0  0  0  0
 39 42  2  0  0  0  0
 39 43  2  0  0  0  0
 40 41  1  0  0  0  0
M  BCL ATM N_TrTrTrPi2 C_TeTeTeTe H_S C_TrTrTrPi C_TrTrTrPi H_S C_TeTeTeTe H_S O_Te2Te2TeTe C_TrTrTrPi N_Tr2TrTrPi N_Tr2TrTrPi C_TeTeTeTe H_S O_Te2Te2TeTe H_S C_TeTeTeTe H_S C_TrTrTrPi C_TrTrTrPi H_S O_Tr2TrTrPi2 C_TeTeTeTe H_S H_S N_Tr2TrTrPi N_TrTrTrPi2 H_S H_S P_TeTeTeTePi O_Tr2TrTrPi2 O_Tr2Tr2TrPi O_Te2Te2Te2Te O_Te2Te2Te2Te P_TeTeTeTePi O_Tr2TrTrPi2 O_Te2Te2TeTe O_Tr2Tr2TrPi S_TeTeTeTePiPi O_Te2Te2TeTe H_S O_Tr2Tr2TrPi O_Tr2Tr2TrPi
M  BCL BND NonConjugatedSingleBond AromaticSingleBond AromaticSingleBond NonConjugatedSingleBond NonConjugatedSingleBondInRing NonConjugatedSingleBondInRing AromaticDoubleBond AromaticSingleBond NonConjugatedSingleBond AromaticDoubleBond NonConjugatedSingleBond NonConjugatedSingleBondInRing NonConjugatedSingleBond NonConjugatedSingleBondInRing AromaticSingleBond AromaticSingleBond AromaticDoubleBond NonConjugatedSingleBond NonConjugatedSingleBondInRing NonConjugatedSingleBond NonConjugatedSingleBond NonConjugatedSingleBond NonConjugatedSingleBond AromaticDoubleBond ConjugatedSingleBond NonConjugatedSingleBond AromaticSingleBond ConjugatedSingleBond NonConjugatedSingleBond NonConjugatedSingleBond NonConjugatedSingleBond NonConjugatedSingleBond NonConjugatedSingleBond ConjugatedDoubleBond ConjugatedSingleBond ConjugatedSingleBond ConjugatedSingleBond ConjugatedSingleBond ConjugatedSingleBond ConjugatedDoubleBond ConjugatedSingleBond ConjugatedSingleBond ConjugatedDoubleBond ConjugatedDoubleBond NonConjugatedSingleBond
M  BCL CHI   2   R   7   R  13   S  17   S  35   R
M  BCL DBI - - - - - - - -
M  END
> <ConfClashScore>
0 

> <ConfOneFourInteractionScore>
-0.981576 

> <ConfScore>
-0.229411 

> <ConfScorePBest>
0.00850649 

> <ConfTolerance>
1.17041 

$$$$
ChEBI.****
  PyMOL2.5          3D                             0

 43 45  0  0  0  0  0  0  0  0999 V2000
    1.0568    0.7744    7.0968 N   0  0  0  1  0  0  0  0  0  0  0  0
    0.4462    0.6679    5.7512 C   0  0  0  1  0  0  0  0  0  0  0  0
   -0.4150    1.3008    5.6987 H   0  0  0  1  0  0  0  0  0  0  0  0
    0.8511    1.8113    7.9699 C   0  0  0  1  0  0  0  0  0  0  0  0
    1.9066   -0.0788    7.7314 C   0  0  0  1  0  0  0  0  0  0  0  0
    2.2440   -0.9600    7.2941 H   0  0  0  1  0  0  0  0  0  0  0  0
    0.0656   -0.7841    5.4469 C   0  0  0  1  0  0  0  0  0  0  0  0
    0.6415   -1.4640    6.0393 H   0  0  0  1  0  0  0  0  0  0  0  0
    1.4034    1.0278    4.7297 O   0  0  0  1  0  0  0  0  0  0  0  0
    1.6077    1.4992    9.1074 C   0  0  0  1  0  0  0  0  0  0  0  0
    0.0837    2.8879    7.7938 N   0  0  0  1  0  0  0  0  0  0  0  0
    2.2661    0.2922    8.9301 N   0  0  0  1  0  0  0  0  0  0  0  0
    0.3981   -0.9264    3.9848 C   0  0  0  1  0  0  0  0  0  0  0  0
   -0.4095   -0.5866    3.3706 H   0  0  0  1  0  0  0  0  0  0  0  0
   -1.3255   -1.0088    5.6801 O   0  0  0  1  0  0  0  0  0  0  0  0
   -1.8200   -0.2170    5.4559 H   0  0  0  1  0  0  0  0  0  0  0  0
    1.6298   -0.0226    3.8295 C   0  0  0  1  0  0  0  0  0  0  0  0
    1.7054    0.3463    2.8279 H   0  0  0  1  0  0  0  0  0  0  0  0
    1.5355    2.4216   10.1470 C   0  0  0  1  0  0  0  0  0  0  0  0
    0.1147    3.6826    8.8566 C   0  0  0  1  0  0  0  0  0  0  0  0
   -0.4591    4.5473    8.7885 H   0  0  0  1  0  0  0  0  0  0  0  0
    0.7141   -2.3030    3.6516 O   0  0  0  1  0  0  0  0  0  0  0  0
    2.8773   -0.7631    4.1835 C   0  0  0  1  0  0  0  0  0  0  0  0
    2.9767   -1.6279    3.5614 H   0  0  0  1  0  0  0  0  0  0  0  0
    2.8439   -1.0634    5.2100 H   0  0  0  1  0  0  0  0  0  0  0  0
    0.7867    3.5208   10.0074 N   0  0  0  1  0  0  0  0  0  0  0  0
    2.1886    2.3169   11.3703 N   0  0  0  1  0  0  0  0  0  0  0  0
    2.8662    1.6220   11.5062 H   0  0  0  1  0  0  0  0  0  0  0  0
    1.9714    2.9380   12.0965 H   0  0  0  1  0  0  0  0  0  0  0  0
   -0.1138   -3.0268    2.4350 P   0  0  0  1  0  0  0  0  0  0  0  0
    3.9949    0.1304    3.9677 O   0  0  0  1  0  0  0  0  0  0  0  0
   -0.2748   -2.2478    1.1869 O   0  0  0  1  0  0  0  0  0  0  0  0
   -1.5241   -3.5000    3.0764 O   0  5  0  1  0  0  0  0  0  0  0  0
    0.6457   -4.4180    2.1002 O   0  5  0  1  0  0  0  0  0  0  0  0
    4.7536    0.7814    5.1828 P   0  0  0  1  0  0  0  0  0  0  0  0
    3.7721    1.8738    5.8704 O   0  0  0  1  0  0  0  0  0  0  0  0
    5.9416    1.4929    4.5546 O   0  0  0  0  0  0  0  0  0  0  0  0
    5.1277   -0.2025    6.2390 O   0  0  0  1  0  0  0  0  0  0  0  0
    4.2686    3.4040    6.4373 S   0  0  0  1  0  0  0  0  0  0  0  0
    5.6190    3.3923    5.9813 O   0  0  0  1  0  0  0  0  0  0  0  0
    5.6564    3.7258    5.0818 H   0  0  0  1  0  0  0  0  0  0  0  0
    3.3813    4.1419    5.6757 O   0  0  0  1  0  0  0  0  0  0  0  0
    4.1267    3.3802    7.7991 O   0  0  0  1  0  0  0  0  0  0  0  0
  1  2  1  0  0  0  0
  1  4  1  0  0  0  0
  1  5  1  0  0  0  0
  2  3  1  0  0  0  0
  2  7  1  0  0  0  0
  2  9  1  0  0  0  0
  4 10  2  0  0  0  0
  4 11  1  0  0  0  0
  5  6  1  0  0  0  0
  5 12  2  0  0  0  0
  7  8  1  0  0  0  0
  7 13  1  0  0  0  0
  7 15  1  0  0  0  0
  9 17  1  0  0  0  0
 10 12  1  0  0  0  0
 10 19  1  0  0  0  0
 11 20  2  0  0  0  0
 13 14  1  0  0  0  0
 13 17  1  0  0  0  0
 13 22  1  0  0  0  0
 15 16  1  0  0  0  0
 17 18  1  0  0  0  0
 17 23  1  0  0  0  0
 19 26  2  0  0  0  0
 19 27  1  0  0  0  0
 20 21  1  0  0  0  0
 20 26  1  0  0  0  0
 22 30  1  0  0  0  0
 23 24  1  0  0  0  0
 23 25  1  0  0  0  0
 23 31  1  0  0  0  0
 27 28  1  0  0  0  0
 27 29  1  0  0  0  0
 30 32  2  0  0  0  0
 30 33  1  0  0  0  0
 30 34  1  0  0  0  0
 31 35  1  0  0  0  0
 35 36  1  0  0  0  0
 35 37  1  0  0  0  0
 35 38  2  0  0  0  0
 36 39  1  0  0  0  0
 39 40  1  0  0  0  0
 39 42  2  0  0  0  0
 39 43  2  0  0  0  0
 40 41  1  0  0  0  0
M  BCL ATM N_TrTrTrPi2 C_TeTeTeTe H_S C_TrTrTrPi C_TrTrTrPi H_S C_TeTeTeTe H_S O_Te2Te2TeTe C_TrTrTrPi N_Tr2TrTrPi N_Tr2TrTrPi C_TeTeTeTe H_S O_Te2Te2TeTe H_S C_TeTeTeTe H_S C_TrTrTrPi C_TrTrTrPi H_S O_Tr2TrTrPi2 C_TeTeTeTe H_S H_S N_Tr2TrTrPi N_TrTrTrPi2 H_S H_S P_TeTeTeTePi O_Tr2TrTrPi2 O_Tr2Tr2TrPi O_Te2Te2Te2Te O_Te2Te2Te2Te P_TeTeTeTePi O_Tr2TrTrPi2 O_Te2Te2TeTe O_Tr2Tr2TrPi S_TeTeTeTePiPi O_Te2Te2TeTe H_S O_Tr2Tr2TrPi O_Tr2Tr2TrPi
M  BCL BND NonConjugatedSingleBond AromaticSingleBond AromaticSingleBond NonConjugatedSingleBond NonConjugatedSingleBondInRing NonConjugatedSingleBondInRing AromaticDoubleBond AromaticSingleBond NonConjugatedSingleBond AromaticDoubleBond NonConjugatedSingleBond NonConjugatedSingleBondInRing NonConjugatedSingleBond NonConjugatedSingleBondInRing AromaticSingleBond AromaticSingleBond AromaticDoubleBond NonConjugatedSingleBond NonConjugatedSingleBondInRing NonConjugatedSingleBond NonConjugatedSingleBond NonConjugatedSingleBond NonConjugatedSingleBond AromaticDoubleBond ConjugatedSingleBond NonConjugatedSingleBond AromaticSingleBond ConjugatedSingleBond NonConjugatedSingleBond NonConjugatedSingleBond NonConjugatedSingleBond NonConjugatedSingleBond NonConjugatedSingleBond ConjugatedDoubleBond ConjugatedSingleBond ConjugatedSingleBond ConjugatedSingleBond ConjugatedSingleBond ConjugatedSingleBond ConjugatedDoubleBond ConjugatedSingleBond ConjugatedSingleBond ConjugatedDoubleBond ConjugatedDoubleBond NonConjugatedSingleBond
M  BCL CHI   2   R   7   R  13   S  17   S  35   R
M  BCL DBI - - - - - - - -
M  END
> <ConfClashScore>
0 

> <ConfOneFourInteractionScore>
-0.979564 

> <ConfScore>
-0.226101 

> <ConfScorePBest>
0.00840348 

> <ConfTolerance>
1.44296 

$$$$
ChEBI.****
  PyMOL2.5          3D                             0

 43 45  0  0  0  0  0  0  0  0999 V2000
    1.0866    0.8080    7.0949 N   0  0  0  1  0  0  0  0  0  0  0  0
    0.4598    0.5390    5.7546 C   0  0  0  1  0  0  0  0  0  0  0  0
   -0.5833    0.3377    5.8821 H   0  0  0  1  0  0  0  0  0  0  0  0
    0.8557    1.8340    7.9745 C   0  0  0  1  0  0  0  0  0  0  0  0
    1.9488   -0.0336    7.7282 C   0  0  0  1  0  0  0  0  0  0  0  0
    2.3058   -0.9048    7.2863 H   0  0  0  1  0  0  0  0  0  0  0  0
    1.1475   -0.6166    5.0644 C   0  0  0  1  0  0  0  0  0  0  0  0
    1.4976   -1.3340    5.7770 H   0  0  0  1  0  0  0  0  0  0  0  0
    0.6619    1.6695    4.8530 O   0  0  0  1  0  0  0  0  0  0  0  0
    1.6112    1.5277    9.1143 C   0  0  0  1  0  0  0  0  0  0  0  0
    0.0688    2.8970    7.8019 N   0  0  0  1  0  0  0  0  0  0  0  0
    2.2937    0.3350    8.9319 N   0  0  0  1  0  0  0  0  0  0  0  0
    2.3217    0.0494    4.3347 C   0  0  0  1  0  0  0  0  0  0  0  0
    2.5573   -0.4696    3.4292 H   0  0  0  1  0  0  0  0  0  0  0  0
    0.2671   -1.2549    4.1384 O   0  0  0  1  0  0  0  0  0  0  0  0
    0.7749   -1.6056    3.4030 H   0  0  0  1  0  0  0  0  0  0  0  0
    1.7826    1.4584    4.0412 C   0  0  0  1  0  0  0  0  0  0  0  0
    1.5040    1.5333    3.0109 H   0  0  0  1  0  0  0  0  0  0  0  0
    1.5150    2.4405   10.1605 C   0  0  0  1  0  0  0  0  0  0  0  0
    0.0780    3.6839    8.8708 C   0  0  0  1  0  0  0  0  0  0  0  0
   -0.5119    4.5379    8.8057 H   0  0  0  1  0  0  0  0  0  0  0  0
    3.4991    0.1058    5.1811 O   0  0  0  1  0  0  0  0  0  0  0  0
    2.8307    2.4765    4.3495 C   0  0  0  1  0  0  0  0  0  0  0  0
    3.0854    2.4345    5.3879 H   0  0  0  1  0  0  0  0  0  0  0  0
    2.4701    3.4549    4.1095 H   0  0  0  1  0  0  0  0  0  0  0  0
    0.7459    3.5262   10.0245 N   0  0  0  1  0  0  0  0  0  0  0  0
    2.1781    2.2873   11.3494 N   0  0  0  1  0  0  0  0  0  0  0  0
    2.0283    2.9236   12.0796 H   0  0  0  1  0  0  0  0  0  0  0  0
    2.8024    1.5415   11.4698 H   0  0  0  1  0  0  0  0  0  0  0  0
    4.9607   -0.4814    4.7248 P   0  0  0  1  0  0  0  0  0  0  0  0
    3.9844    2.1707    3.5500 O   0  0  0  1  0  0  0  0  0  0  0  0
    6.0220   -0.0221    5.6485 O   0  0  0  1  0  0  0  0  0  0  0  0
    5.1542   -0.0365    3.1791 O   0  5  0  1  0  0  0  0  0  0  0  0
    4.8779   -2.0943    4.8519 O   0  5  0  1  0  0  0  0  0  0  0  0
    5.2270    3.0239    3.4477 P   0  0  0  1  0  0  0  0  0  0  0  0
    5.9896    2.9569    4.8772 O   0  0  0  1  0  0  0  0  0  0  0  0
    4.8951    4.5047    3.3525 O   0  0  0  0  0  0  0  0  0  0  0  0
    6.2248    2.5605    2.4160 O   0  0  0  1  0  0  0  0  0  0  0  0
    7.3458    2.2707    5.1146 S   0  0  0  1  0  0  0  0  0  0  0  0
    8.3117    3.2733    4.8293 O   0  0  0  1  0  0  0  0  0  0  0  0
    7.9521    4.1362    5.0476 H   0  0  0  1  0  0  0  0  0  0  0  0
    7.0768    2.1401    6.4439 O   0  0  0  1  0  0  0  0  0  0  0  0
    7.2743    1.2711    4.2059 O   0  0  0  1  0  0  0  0  0  0  0  0
  1  2  1  0  0  0  0
  1  4  1  0  0  0  0
  1  5  1  0  0  0  0
  2  3  1  0  0  0  0
  2  7  1  0  0  0  0
  2  9  1  0  0  0  0
  4 10  2  0  0  0  0
  4 11  1  0  0  0  0
  5  6  1  0  0  0  0
  5 12  2  0  0  0  0
  7  8  1  0  0  0  0
  7 13  1  0  0  0  0
  7 15  1  0  0  0  0
  9 17  1  0  0  0  0
 10 12  1  0  0  0  0
 10 19  1  0  0  0  0
 11 20  2  0  0  0  0
 13 14  1  0  0  0  0
 13 17  1  0  0  0  0
 13 22  1  0  0  0  0
 15 16  1  0  0  0  0
 17 18  1  0  0  0  0
 17 23  1  0  0  0  0
 19 26  2  0  0  0  0
 19 27  1  0  0  0  0
 20 21  1  0  0  0  0
 20 26  1  0  0  0  0
 22 30  1  0  0  0  0
 23 24  1  0  0  0  0
 23 25  1  0  0  0  0
 23 31  1  0  0  0  0
 27 28  1  0  0  0  0
 27 29  1  0  0  0  0
 30 32  2  0  0  0  0
 30 33  1  0  0  0  0
 30 34  1  0  0  0  0
 31 35  1  0  0  0  0
 35 36  1  0  0  0  0
 35 37  1  0  0  0  0
 35 38  2  0  0  0  0
 36 39  1  0  0  0  0
 39 40  1  0  0  0  0
 39 42  2  0  0  0  0
 39 43  2  0  0  0  0
 40 41  1  0  0  0  0
M  BCL ATM N_TrTrTrPi2 C_TeTeTeTe H_S C_TrTrTrPi C_TrTrTrPi H_S C_TeTeTeTe H_S O_Te2Te2TeTe C_TrTrTrPi N_Tr2TrTrPi N_Tr2TrTrPi C_TeTeTeTe H_S O_Te2Te2TeTe H_S C_TeTeTeTe H_S C_TrTrTrPi C_TrTrTrPi H_S O_Tr2TrTrPi2 C_TeTeTeTe H_S H_S N_Tr2TrTrPi N_TrTrTrPi2 H_S H_S P_TeTeTeTePi O_Tr2TrTrPi2 O_Tr2Tr2TrPi O_Te2Te2Te2Te O_Te2Te2Te2Te P_TeTeTeTePi O_Tr2TrTrPi2 O_Te2Te2TeTe O_Tr2Tr2TrPi S_TeTeTeTePiPi O_Te2Te2TeTe H_S O_Tr2Tr2TrPi O_Tr2Tr2TrPi
M  BCL BND NonConjugatedSingleBond AromaticSingleBond AromaticSingleBond NonConjugatedSingleBond NonConjugatedSingleBondInRing NonConjugatedSingleBondInRing AromaticDoubleBond AromaticSingleBond NonConjugatedSingleBond AromaticDoubleBond NonConjugatedSingleBond NonConjugatedSingleBondInRing NonConjugatedSingleBond NonConjugatedSingleBondInRing AromaticSingleBond AromaticSingleBond AromaticDoubleBond NonConjugatedSingleBond NonConjugatedSingleBondInRing NonConjugatedSingleBond NonConjugatedSingleBond NonConjugatedSingleBond NonConjugatedSingleBond AromaticDoubleBond ConjugatedSingleBond NonConjugatedSingleBond AromaticSingleBond ConjugatedSingleBond NonConjugatedSingleBond NonConjugatedSingleBond NonConjugatedSingleBond NonConjugatedSingleBond NonConjugatedSingleBond ConjugatedDoubleBond ConjugatedSingleBond ConjugatedSingleBond ConjugatedSingleBond ConjugatedSingleBond ConjugatedSingleBond ConjugatedDoubleBond ConjugatedSingleBond ConjugatedSingleBond ConjugatedDoubleBond ConjugatedDoubleBond NonConjugatedSingleBond
M  BCL CHI   2   R   7   R  13   S  17   S  35   R
M  BCL DBI - - - - - - - -
M  END
> <ConfClashScore>
0 

> <ConfOneFourInteractionScore>
-0.966744 

> <ConfScore>
-0.222391 

> <ConfScorePBest>
0.00830048 

> <ConfTolerance>
1.39422 

$$$$
ChEBI.****
  PyMOL2.5          3D                             0

 43 45  0  0  0  0  0  0  0  0999 V2000
    1.0532    0.7825    7.0936 N   0  0  0  1  0  0  0  0  0  0  0  0
    0.4764    0.6296    5.7575 C   0  0  0  1  0  0  0  0  0  0  0  0
    0.9906    1.2694    5.0711 H   0  0  0  1  0  0  0  0  0  0  0  0
    0.8475    1.8168    7.9697 C   0  0  0  1  0  0  0  0  0  0  0  0
    1.9047   -0.0715    7.7247 C   0  0  0  1  0  0  0  0  0  0  0  0
    2.2425   -0.9511    7.2845 H   0  0  0  1  0  0  0  0  0  0  0  0
   -1.0201    0.9547    5.7775 C   0  0  0  1  0  0  0  0  0  0  0  0
   -1.4249    0.8391    6.7613 H   0  0  0  1  0  0  0  0  0  0  0  0
    0.5564   -0.7473    5.3249 O   0  0  0  1  0  0  0  0  0  0  0  0
    1.6059    1.5024    9.1054 C   0  0  0  1  0  0  0  0  0  0  0  0
    0.0787    2.8931    7.7976 N   0  0  0  1  0  0  0  0  0  0  0  0
    2.2654    0.2967    8.9239 N   0  0  0  1  0  0  0  0  0  0  0  0
   -1.6042   -0.0603    4.8303 C   0  0  0  1  0  0  0  0  0  0  0  0
   -1.5447    0.2785    3.8172 H   0  0  0  1  0  0  0  0  0  0  0  0
   -1.2617    2.2846    5.3159 O   0  0  0  1  0  0  0  0  0  0  0  0
   -1.6559    2.8022    6.0218 H   0  0  0  1  0  0  0  0  0  0  0  0
   -0.7092   -1.2873    5.0571 C   0  0  0  1  0  0  0  0  0  0  0  0
   -0.6812   -1.9029    4.1824 H   0  0  0  1  0  0  0  0  0  0  0  0
    1.5341    2.4219   10.1477 C   0  0  0  1  0  0  0  0  0  0  0  0
    0.1102    3.6849    8.8625 C   0  0  0  1  0  0  0  0  0  0  0  0
   -0.4646    4.5491    8.7975 H   0  0  0  1  0  0  0  0  0  0  0  0
   -2.9794   -0.3507    5.1616 O   0  0  0  1  0  0  0  0  0  0  0  0
   -1.1975   -2.0912    6.2170 C   0  0  0  1  0  0  0  0  0  0  0  0
   -1.3431   -1.4556    7.0654 H   0  0  0  1  0  0  0  0  0  0  0  0
   -0.4851   -2.8521    6.4588 H   0  0  0  1  0  0  0  0  0  0  0  0
    0.7839    3.5207   10.0119 N   0  0  0  1  0  0  0  0  0  0  0  0
    2.1889    2.3146   11.3698 N   0  0  0  1  0  0  0  0  0  0  0  0
    2.8254    1.5851   11.5223 H   0  0  0  1  0  0  0  0  0  0  0  0
    2.0140    2.9684   12.0785 H   0  0  0  1  0  0  0  0  0  0  0  0
   -4.0775   -0.6717    3.9866 P   0  0  0  1  0  0  0  0  0  0  0  0
   -2.4545   -2.6969    5.8336 O   0  0  0  1  0  0  0  0  0  0  0  0
   -3.5743   -1.5021    2.8696 O   0  0  0  1  0  0  0  0  0  0  0  0
   -4.7713    0.7345    3.5798 O   0  5  0  1  0  0  0  0  0  0  0  0
   -5.3659   -1.2574    4.7750 O   0  5  0  1  0  0  0  0  0  0  0  0
   -3.4570   -3.3212    6.8673 P   0  0  0  1  0  0  0  0  0  0  0  0
   -2.4851   -4.4186    7.6797 O   0  0  0  1  0  0  0  0  0  0  0  0
   -4.5103   -4.0928    6.1377 O   0  0  0  0  0  0  0  0  0  0  0  0
   -3.9007   -2.2020    7.7404 O   0  0  0  1  0  0  0  0  0  0  0  0
   -2.6282   -5.8104    8.3949 S   0  0  0  1  0  0  0  0  0  0  0  0
   -1.2517   -6.2164    8.4408 O   0  0  0  1  0  0  0  0  0  0  0  0
   -0.8107   -5.7724    9.1688 H   0  0  0  1  0  0  0  0  0  0  0  0
   -3.1283   -5.5679    9.6755 O   0  0  0  1  0  0  0  0  0  0  0  0
   -3.3686   -6.7013    7.5960 O   0  0  0  1  0  0  0  0  0  0  0  0
  1  2  1  0  0  0  0
  1  4  1  0  0  0  0
  1  5  1  0  0  0  0
  2  3  1  0  0  0  0
  2  7  1  0  0  0  0
  2  9  1  0  0  0  0
  4 10  2  0  0  0  0
  4 11  1  0  0  0  0
  5  6  1  0  0  0  0
  5 12  2  0  0  0  0
  7  8  1  0  0  0  0
  7 13  1  0  0  0  0
  7 15  1  0  0  0  0
  9 17  1  0  0  0  0
 10 12  1  0  0  0  0
 10 19  1  0  0  0  0
 11 20  2  0  0  0  0
 13 14  1  0  0  0  0
 13 17  1  0  0  0  0
 13 22  1  0  0  0  0
 15 16  1  0  0  0  0
 17 18  1  0  0  0  0
 17 23  1  0  0  0  0
 19 26  2  0  0  0  0
 19 27  1  0  0  0  0
 20 21  1  0  0  0  0
 20 26  1  0  0  0  0
 22 30  1  0  0  0  0
 23 24  1  0  0  0  0
 23 25  1  0  0  0  0
 23 31  1  0  0  0  0
 27 28  1  0  0  0  0
 27 29  1  0  0  0  0
 30 32  2  0  0  0  0
 30 33  1  0  0  0  0
 30 34  1  0  0  0  0
 31 35  1  0  0  0  0
 35 36  1  0  0  0  0
 35 37  1  0  0  0  0
 35 38  2  0  0  0  0
 36 39  1  0  0  0  0
 39 40  1  0  0  0  0
 39 42  2  0  0  0  0
 39 43  2  0  0  0  0
 40 41  1  0  0  0  0
M  BCL ATM N_TrTrTrPi2 C_TeTeTeTe H_S C_TrTrTrPi C_TrTrTrPi H_S C_TeTeTeTe H_S O_Te2Te2TeTe C_TrTrTrPi N_Tr2TrTrPi N_Tr2TrTrPi C_TeTeTeTe H_S O_Te2Te2TeTe H_S C_TeTeTeTe H_S C_TrTrTrPi C_TrTrTrPi H_S O_Tr2TrTrPi2 C_TeTeTeTe H_S H_S N_Tr2TrTrPi N_TrTrTrPi2 H_S H_S P_TeTeTeTePi O_Tr2TrTrPi2 O_Tr2Tr2TrPi O_Te2Te2Te2Te O_Te2Te2Te2Te P_TeTeTeTePi O_Tr2TrTrPi2 O_Te2Te2TeTe O_Tr2Tr2TrPi S_TeTeTeTePiPi O_Te2Te2TeTe H_S O_Tr2Tr2TrPi O_Tr2Tr2TrPi
M  BCL BND NonConjugatedSingleBond AromaticSingleBond AromaticSingleBond NonConjugatedSingleBond NonConjugatedSingleBondInRing NonConjugatedSingleBondInRing AromaticDoubleBond AromaticSingleBond NonConjugatedSingleBond AromaticDoubleBond NonConjugatedSingleBond NonConjugatedSingleBondInRing NonConjugatedSingleBond NonConjugatedSingleBondInRing AromaticSingleBond AromaticSingleBond AromaticDoubleBond NonConjugatedSingleBond NonConjugatedSingleBondInRing NonConjugatedSingleBond NonConjugatedSingleBond NonConjugatedSingleBond NonConjugatedSingleBond AromaticDoubleBond ConjugatedSingleBond NonConjugatedSingleBond AromaticSingleBond ConjugatedSingleBond NonConjugatedSingleBond NonConjugatedSingleBond NonConjugatedSingleBond NonConjugatedSingleBond NonConjugatedSingleBond ConjugatedDoubleBond ConjugatedSingleBond ConjugatedSingleBond ConjugatedSingleBond ConjugatedSingleBond ConjugatedSingleBond ConjugatedDoubleBond ConjugatedSingleBond ConjugatedSingleBond ConjugatedDoubleBond ConjugatedDoubleBond NonConjugatedSingleBond
M  BCL CHI   2   R   7   R  13   S  17   S  35   R
M  BCL DBI - - - - - - - -
M  END
> <ConfClashScore>
0 

> <ConfOneFourInteractionScore>
-0.983639 

> <ConfScore>
-0.221371 

> <ConfScorePBest>
0.00819748 

> <ConfTolerance>
1.17611 

$$$$
ChEBI.****
  PyMOL2.5          3D                             0

 43 45  0  0  0  0  0  0  0  0999 V2000
    1.0587    0.7849    7.0933 N   0  0  0  1  0  0  0  0  0  0  0  0
    0.4715    0.6287    5.7319 C   0  0  0  1  0  0  0  0  0  0  0  0
    0.8913    1.3621    5.0756 H   0  0  0  1  0  0  0  0  0  0  0  0
    0.8482    1.8166    7.9714 C   0  0  0  1  0  0  0  0  0  0  0  0
    1.9145   -0.0661    7.7227 C   0  0  0  1  0  0  0  0  0  0  0  0
    2.2565   -0.9433    7.2809 H   0  0  0  1  0  0  0  0  0  0  0  0
   -1.0178    0.7791    5.7906 C   0  0  0  1  0  0  0  0  0  0  0  0
   -1.3786    0.5891    6.7799 H   0  0  0  1  0  0  0  0  0  0  0  0
    0.7272   -0.6831    5.2327 O   0  0  0  1  0  0  0  0  0  0  0  0
    1.6084    1.5038    9.1063 C   0  0  0  1  0  0  0  0  0  0  0  0
    0.0742    2.8895    7.8014 N   0  0  0  1  0  0  0  0  0  0  0  0
    2.2736    0.3016    8.9226 N   0  0  0  1  0  0  0  0  0  0  0  0
   -1.5418   -0.2633    4.8185 C   0  0  0  1  0  0  0  0  0  0  0  0
   -2.1092    0.1988    4.0378 H   0  0  0  1  0  0  0  0  0  0  0  0
   -1.4094    2.0911    5.3839 O   0  0  0  1  0  0  0  0  0  0  0  0
   -2.3213    2.2472    5.6402 H   0  0  0  1  0  0  0  0  0  0  0  0
   -0.2923   -0.9197    4.2581 C   0  0  0  1  0  0  0  0  0  0  0  0
   -0.0249   -0.4777    3.3212 H   0  0  0  1  0  0  0  0  0  0  0  0
    1.5324    2.4211   10.1503 C   0  0  0  1  0  0  0  0  0  0  0  0
    0.1022    3.6795    8.8677 C   0  0  0  1  0  0  0  0  0  0  0  0
   -0.4768    4.5411    8.8044 H   0  0  0  1  0  0  0  0  0  0  0  0
   -2.3685   -1.2372    5.5068 O   0  0  0  1  0  0  0  0  0  0  0  0
   -0.5095   -2.3856    4.0738 C   0  0  0  1  0  0  0  0  0  0  0  0
   -1.4152   -2.5542    3.5295 H   0  0  0  1  0  0  0  0  0  0  0  0
   -0.5707   -2.8676    5.0271 H   0  0  0  1  0  0  0  0  0  0  0  0
    0.7768    3.5165   10.0167 N   0  0  0  1  0  0  0  0  0  0  0  0
    2.1880    2.3147   11.3721 N   0  0  0  1  0  0  0  0  0  0  0  0
    2.7255    1.5201   11.5722 H   0  0  0  1  0  0  0  0  0  0  0  0
    2.1126    3.0344   12.0329 H   0  0  0  1  0  0  0  0  0  0  0  0
   -3.9574   -1.4033    5.1359 P   0  0  0  1  0  0  0  0  0  0  0  0
    0.6169   -2.9065    3.3297 O   0  0  0  1  0  0  0  0  0  0  0  0
   -4.6495   -0.1336    5.4513 O   0  0  0  1  0  0  0  0  0  0  0  0
   -4.3727   -2.4784    6.2744 O   0  5  0  1  0  0  0  0  0  0  0  0
   -4.0900   -2.0549    3.6587 O   0  5  0  1  0  0  0  0  0  0  0  0
    0.6038   -4.3997    2.7628 P   0  0  0  1  0  0  0  0  0  0  0  0
    2.1885   -4.6338    2.5110 O   0  0  0  1  0  0  0  0  0  0  0  0
   -0.1845   -4.4643    1.4894 O   0  0  0  0  0  0  0  0  0  0  0  0
    0.1837   -5.3512    3.8405 O   0  0  0  1  0  0  0  0  0  0  0  0
    3.1769   -5.3486    3.5425 S   0  0  0  1  0  0  0  0  0  0  0  0
    4.4102   -4.5872    3.5275 O   0  0  0  1  0  0  0  0  0  0  0  0
    4.5448   -4.2124    2.6540 H   0  0  0  1  0  0  0  0  0  0  0  0
    2.5278   -5.3009    4.8294 O   0  0  0  1  0  0  0  0  0  0  0  0
    3.2928   -6.6614    2.9795 O   0  0  0  1  0  0  0  0  0  0  0  0
  1  2  1  0  0  0  0
  1  4  1  0  0  0  0
  1  5  1  0  0  0  0
  2  3  1  0  0  0  0
  2  7  1  0  0  0  0
  2  9  1  0  0  0  0
  4 10  2  0  0  0  0
  4 11  1  0  0  0  0
  5  6  1  0  0  0  0
  5 12  2  0  0  0  0
  7  8  1  0  0  0  0
  7 13  1  0  0  0  0
  7 15  1  0  0  0  0
  9 17  1  0  0  0  0
 10 12  1  0  0  0  0
 10 19  1  0  0  0  0
 11 20  2  0  0  0  0
 13 14  1  0  0  0  0
 13 17  1  0  0  0  0
 13 22  1  0  0  0  0
 15 16  1  0  0  0  0
 17 18  1  0  0  0  0
 17 23  1  0  0  0  0
 19 26  2  0  0  0  0
 19 27  1  0  0  0  0
 20 21  1  0  0  0  0
 20 26  1  0  0  0  0
 22 30  1  0  0  0  0
 23 24  1  0  0  0  0
 23 25  1  0  0  0  0
 23 31  1  0  0  0  0
 27 28  1  0  0  0  0
 27 29  1  0  0  0  0
 30 32  2  0  0  0  0
 30 33  1  0  0  0  0
 30 34  1  0  0  0  0
 31 35  1  0  0  0  0
 35 36  1  0  0  0  0
 35 37  1  0  0  0  0
 35 38  2  0  0  0  0
 36 39  1  0  0  0  0
 39 40  1  0  0  0  0
 39 42  2  0  0  0  0
 39 43  2  0  0  0  0
 40 41  1  0  0  0  0
M  BCL ATM N_TrTrTrPi2 C_TeTeTeTe H_S C_TrTrTrPi C_TrTrTrPi H_S C_TeTeTeTe H_S O_Te2Te2TeTe C_TrTrTrPi N_Tr2TrTrPi N_Tr2TrTrPi C_TeTeTeTe H_S O_Te2Te2TeTe H_S C_TeTeTeTe H_S C_TrTrTrPi C_TrTrTrPi H_S O_Tr2TrTrPi2 C_TeTeTeTe H_S H_S N_Tr2TrTrPi N_TrTrTrPi2 H_S H_S P_TeTeTeTePi O_Tr2TrTrPi2 O_Tr2Tr2TrPi O_Te2Te2Te2Te O_Te2Te2Te2Te P_TeTeTeTePi O_Tr2TrTrPi2 O_Te2Te2TeTe O_Tr2Tr2TrPi S_TeTeTeTePiPi O_Te2Te2TeTe H_S O_Tr2Tr2TrPi O_Tr2Tr2TrPi
M  BCL BND NonConjugatedSingleBond AromaticSingleBond AromaticSingleBond NonConjugatedSingleBond NonConjugatedSingleBondInRing NonConjugatedSingleBondInRing AromaticDoubleBond AromaticSingleBond NonConjugatedSingleBond AromaticDoubleBond NonConjugatedSingleBond NonConjugatedSingleBondInRing NonConjugatedSingleBond NonConjugatedSingleBondInRing AromaticSingleBond AromaticSingleBond AromaticDoubleBond NonConjugatedSingleBond NonConjugatedSingleBondInRing NonConjugatedSingleBond NonConjugatedSingleBond NonConjugatedSingleBond NonConjugatedSingleBond AromaticDoubleBond ConjugatedSingleBond NonConjugatedSingleBond AromaticSingleBond ConjugatedSingleBond NonConjugatedSingleBond NonConjugatedSingleBond NonConjugatedSingleBond NonConjugatedSingleBond NonConjugatedSingleBond ConjugatedDoubleBond ConjugatedSingleBond ConjugatedSingleBond ConjugatedSingleBond ConjugatedSingleBond ConjugatedSingleBond ConjugatedDoubleBond ConjugatedSingleBond ConjugatedSingleBond ConjugatedDoubleBond ConjugatedDoubleBond NonConjugatedSingleBond
M  BCL CHI   2   R   7   R  13   S  17   S  35   R
M  BCL DBI - - - - - - - -
M  END
> <ConfClashScore>
0 

> <ConfOneFourInteractionScore>
-0.981627 

> <ConfScore>
-0.215064 

> <ConfScorePBest>
0.00809448 

> <ConfTolerance>
1.35028 

$$$$
ChEBI.****
  PyMOL2.5          3D                             0

 43 45  0  0  0  0  0  0  0  0999 V2000
    1.0663    0.7849    7.1067 N   0  0  0  1  0  0  0  0  0  0  0  0
    0.4907    0.6188    5.7578 C   0  0  0  1  0  0  0  0  0  0  0  0
    0.7436    1.4657    5.1547 H   0  0  0  1  0  0  0  0  0  0  0  0
    0.8475    1.8210    7.9775 C   0  0  0  1  0  0  0  0  0  0  0  0
    1.9241   -0.0579    7.7446 C   0  0  0  1  0  0  0  0  0  0  0  0
    2.2720   -0.9361    7.3095 H   0  0  0  1  0  0  0  0  0  0  0  0
   -1.0086    0.4547    5.8381 C   0  0  0  1  0  0  0  0  0  0  0  0
   -1.2930   -0.0803    6.7201 H   0  0  0  1  0  0  0  0  0  0  0  0
    0.9701   -0.5947    5.1502 O   0  0  0  1  0  0  0  0  0  0  0  0
    1.6051    1.5192    9.1171 C   0  0  0  1  0  0  0  0  0  0  0  0
    0.0688    2.8888    7.7980 N   0  0  0  1  0  0  0  0  0  0  0  0
    2.2770    0.3192    8.9434 N   0  0  0  1  0  0  0  0  0  0  0  0
   -1.3120   -0.3431    4.5938 C   0  0  0  1  0  0  0  0  0  0  0  0
   -1.4080    0.2977    3.7423 H   0  0  0  1  0  0  0  0  0  0  0  0
   -1.6694    1.7207    5.8146 O   0  0  0  1  0  0  0  0  0  0  0  0
   -1.7905    2.0021    4.9048 H   0  0  0  1  0  0  0  0  0  0  0  0
   -0.1074   -1.2501    4.4560 C   0  0  0  1  0  0  0  0  0  0  0  0
    0.1420   -1.3811    3.4237 H   0  0  0  1  0  0  0  0  0  0  0  0
    1.5207    2.4426   10.1550 C   0  0  0  1  0  0  0  0  0  0  0  0
    0.0889    3.6857    8.8594 C   0  0  0  1  0  0  0  0  0  0  0  0
   -0.4942    4.5439    8.7886 H   0  0  0  1  0  0  0  0  0  0  0  0
   -2.5268   -1.1160    4.7569 O   0  0  0  1  0  0  0  0  0  0  0  0
   -0.3878   -2.5804    5.0738 C   0  0  0  1  0  0  0  0  0  0  0  0
   -1.2395   -3.0275    4.6052 H   0  0  0  1  0  0  0  0  0  0  0  0
   -0.5764   -2.4635    6.1205 H   0  0  0  1  0  0  0  0  0  0  0  0
    0.7601    3.5333   10.0118 N   0  0  0  1  0  0  0  0  0  0  0  0
    2.1875    2.2951   11.3427 N   0  0  0  1  0  0  0  0  0  0  0  0
    2.2335    3.0425   11.9748 H   0  0  0  1  0  0  0  0  0  0  0  0
    2.6183    1.4422   11.5601 H   0  0  0  1  0  0  0  0  0  0  0  0
   -3.5378   -0.8371    6.0177 P   0  0  0  1  0  0  0  0  0  0  0  0
    0.7813   -3.4145    4.8727 O   0  0  0  1  0  0  0  0  0  0  0  0
   -2.8793   -1.1519    7.3052 O   0  0  0  1  0  0  0  0  0  0  0  0
   -4.7799   -1.8650    5.8598 O   0  5  0  1  0  0  0  0  0  0  0  0
   -4.2812    0.6018    5.9795 O   0  5  0  1  0  0  0  0  0  0  0  0
    0.7466   -4.6452    3.8432 P   0  0  0  1  0  0  0  0  0  0  0  0
   -0.3305   -5.6788    4.6051 O   0  0  0  1  0  0  0  0  0  0  0  0
    2.1027   -5.2420    3.7710 O   0  0  0  0  0  0  0  0  0  0  0  0
    0.1046   -4.2095    2.6025 O   0  0  0  1  0  0  0  0  0  0  0  0
   -0.4076   -7.1892    5.0319 S   0  0  0  1  0  0  0  0  0  0  0  0
   -1.7400   -7.4964    4.5995 O   0  0  0  1  0  0  0  0  0  0  0  0
   -1.7062   -7.9470    3.7524 H   0  0  0  1  0  0  0  0  0  0  0  0
    0.5671   -7.9199    4.3411 O   0  0  0  1  0  0  0  0  0  0  0  0
   -0.2501   -7.2306    6.4247 O   0  0  0  1  0  0  0  0  0  0  0  0
  1  2  1  0  0  0  0
  1  4  1  0  0  0  0
  1  5  1  0  0  0  0
  2  3  1  0  0  0  0
  2  7  1  0  0  0  0
  2  9  1  0  0  0  0
  4 10  2  0  0  0  0
  4 11  1  0  0  0  0
  5  6  1  0  0  0  0
  5 12  2  0  0  0  0
  7  8  1  0  0  0  0
  7 13  1  0  0  0  0
  7 15  1  0  0  0  0
  9 17  1  0  0  0  0
 10 12  1  0  0  0  0
 10 19  1  0  0  0  0
 11 20  2  0  0  0  0
 13 14  1  0  0  0  0
 13 17  1  0  0  0  0
 13 22  1  0  0  0  0
 15 16  1  0  0  0  0
 17 18  1  0  0  0  0
 17 23  1  0  0  0  0
 19 26  2  0  0  0  0
 19 27  1  0  0  0  0
 20 21  1  0  0  0  0
 20 26  1  0  0  0  0
 22 30  1  0  0  0  0
 23 24  1  0  0  0  0
 23 25  1  0  0  0  0
 23 31  1  0  0  0  0
 27 28  1  0  0  0  0
 27 29  1  0  0  0  0
 30 32  2  0  0  0  0
 30 33  1  0  0  0  0
 30 34  1  0  0  0  0
 31 35  1  0  0  0  0
 35 36  1  0  0  0  0
 35 37  1  0  0  0  0
 35 38  2  0  0  0  0
 36 39  1  0  0  0  0
 39 40  1  0  0  0  0
 39 42  2  0  0  0  0
 39 43  2  0  0  0  0
 40 41  1  0  0  0  0
M  BCL ATM N_TrTrTrPi2 C_TeTeTeTe H_S C_TrTrTrPi C_TrTrTrPi H_S C_TeTeTeTe H_S O_Te2Te2TeTe C_TrTrTrPi N_Tr2TrTrPi N_Tr2TrTrPi C_TeTeTeTe H_S O_Te2Te2TeTe H_S C_TeTeTeTe H_S C_TrTrTrPi C_TrTrTrPi H_S O_Tr2TrTrPi2 C_TeTeTeTe H_S H_S N_Tr2TrTrPi N_TrTrTrPi2 H_S H_S P_TeTeTeTePi O_Tr2TrTrPi2 O_Tr2Tr2TrPi O_Te2Te2Te2Te O_Te2Te2Te2Te P_TeTeTeTePi O_Tr2TrTrPi2 O_Te2Te2TeTe O_Tr2Tr2TrPi S_TeTeTeTePiPi O_Te2Te2TeTe H_S O_Tr2Tr2TrPi O_Tr2Tr2TrPi
M  BCL BND NonConjugatedSingleBond AromaticSingleBond AromaticSingleBond NonConjugatedSingleBond NonConjugatedSingleBondInRing NonConjugatedSingleBondInRing AromaticDoubleBond AromaticSingleBond NonConjugatedSingleBond AromaticDoubleBond NonConjugatedSingleBond NonConjugatedSingleBondInRing NonConjugatedSingleBond NonConjugatedSingleBondInRing AromaticSingleBond AromaticSingleBond AromaticDoubleBond NonConjugatedSingleBond NonConjugatedSingleBondInRing NonConjugatedSingleBond NonConjugatedSingleBond NonConjugatedSingleBond NonConjugatedSingleBond AromaticDoubleBond ConjugatedSingleBond NonConjugatedSingleBond AromaticSingleBond ConjugatedSingleBond NonConjugatedSingleBond NonConjugatedSingleBond NonConjugatedSingleBond NonConjugatedSingleBond NonConjugatedSingleBond ConjugatedDoubleBond ConjugatedSingleBond ConjugatedSingleBond ConjugatedSingleBond ConjugatedSingleBond ConjugatedSingleBond ConjugatedDoubleBond ConjugatedSingleBond ConjugatedSingleBond ConjugatedDoubleBond ConjugatedDoubleBond NonConjugatedSingleBond
M  BCL CHI   2   R   7   R  13   S  17   S  35   R
M  BCL DBI - - - - - - - -
M  END
> <ConfClashScore>
0 

> <ConfOneFourInteractionScore>
-0.966255 

> <ConfScore>
-0.214124 

> <ConfScorePBest>
0.00799148 

> <ConfTolerance>
1.27497 

$$$$
ChEBI.****
  PyMOL2.5          3D                             0

 43 45  0  0  0  0  0  0  0  0999 V2000
    1.0794    0.7953    7.1192 N   0  0  0  1  0  0  0  0  0  0  0  0
    0.5135    0.6147    5.7679 C   0  0  0  1  0  0  0  0  0  0  0  0
    0.9411    1.3353    5.1024 H   0  0  0  1  0  0  0  0  0  0  0  0
    0.8425    1.8331    7.9831 C   0  0  0  1  0  0  0  0  0  0  0  0
    1.9441   -0.0331    7.7664 C   0  0  0  1  0  0  0  0  0  0  0  0
    2.3056   -0.9092    7.3380 H   0  0  0  1  0  0  0  0  0  0  0  0
   -1.0158    0.7626    5.8047 C   0  0  0  1  0  0  0  0  0  0  0  0
   -1.3181    1.4615    6.5564 H   0  0  0  1  0  0  0  0  0  0  0  0
    0.7622   -0.6817    5.3058 O   0  0  0  1  0  0  0  0  0  0  0  0
    1.5974    1.5471    9.1286 C   0  0  0  1  0  0  0  0  0  0  0  0
    0.0513    2.8900    7.7934 N   0  0  0  1  0  0  0  0  0  0  0  0
    2.2854    0.3548    8.9651 N   0  0  0  1  0  0  0  0  0  0  0  0
   -1.4766   -0.6434    6.1468 C   0  0  0  1  0  0  0  0  0  0  0  0
   -2.4383   -0.8471    5.7244 H   0  0  0  1  0  0  0  0  0  0  0  0
   -1.5242    1.1771    4.5360 O   0  0  0  1  0  0  0  0  0  0  0  0
   -2.0615    1.9648    4.6479 H   0  0  0  1  0  0  0  0  0  0  0  0
   -0.3839   -1.5295    5.4994 C   0  0  0  1  0  0  0  0  0  0  0  0
   -0.7252   -1.9109    4.5597 H   0  0  0  1  0  0  0  0  0  0  0  0
    1.4953    2.4749   10.1609 C   0  0  0  1  0  0  0  0  0  0  0  0
    0.0553    3.6927    8.8505 C   0  0  0  1  0  0  0  0  0  0  0  0
   -0.5382    4.5431    8.7718 H   0  0  0  1  0  0  0  0  0  0  0  0
   -1.5265   -0.8408    7.5765 O   0  0  0  1  0  0  0  0  0  0  0  0
   -0.0384   -2.6670    6.4031 C   0  0  0  1  0  0  0  0  0  0  0  0
   -0.9260   -3.1996    6.6741 H   0  0  0  1  0  0  0  0  0  0  0  0
    0.4405   -2.2983    7.2861 H   0  0  0  1  0  0  0  0  0  0  0  0
    0.7218    3.5551   10.0076 N   0  0  0  1  0  0  0  0  0  0  0  0
    2.2033    2.2485   11.3230 N   0  0  0  1  0  0  0  0  0  0  0  0
    2.1064    2.8598   12.0828 H   0  0  0  1  0  0  0  0  0  0  0  0
    2.8032    1.4763   11.3888 H   0  0  0  1  0  0  0  0  0  0  0  0
   -2.9616   -0.8924    8.3685 P   0  0  0  1  0  0  0  0  0  0  0  0
    0.8613   -3.5424    5.6834 O   0  0  0  1  0  0  0  0  0  0  0  0
   -3.6193    0.4205    8.1834 O   0  0  0  1  0  0  0  0  0  0  0  0
   -2.6244   -1.1692    9.9287 O   0  5  0  1  0  0  0  0  0  0  0  0
   -3.8130   -2.1089    7.7209 O   0  5  0  1  0  0  0  0  0  0  0  0
    2.4315   -3.6400    6.0006 P   0  0  0  1  0  0  0  0  0  0  0  0
    2.9887   -4.3155    4.6357 O   0  0  0  1  0  0  0  0  0  0  0  0
    2.6261   -4.5421    7.1646 O   0  0  0  0  0  0  0  0  0  0  0  0
    2.9898   -2.2886    6.0589 O   0  0  0  1  0  0  0  0  0  0  0  0
    3.0324   -5.9279    4.3432 S   0  0  0  1  0  0  0  0  0  0  0  0
    3.8189   -6.1063    3.1656 O   0  0  0  1  0  0  0  0  0  0  0  0
    3.6274   -5.4016    2.5425 H   0  0  0  1  0  0  0  0  0  0  0  0
    3.5583   -6.5701    5.5015 O   0  0  0  1  0  0  0  0  0  0  0  0
    1.6402   -6.1199    4.1525 O   0  0  0  1  0  0  0  0  0  0  0  0
  1  2  1  0  0  0  0
  1  4  1  0  0  0  0
  1  5  1  0  0  0  0
  2  3  1  0  0  0  0
  2  7  1  0  0  0  0
  2  9  1  0  0  0  0
  4 10  2  0  0  0  0
  4 11  1  0  0  0  0
  5  6  1  0  0  0  0
  5 12  2  0  0  0  0
  7  8  1  0  0  0  0
  7 13  1  0  0  0  0
  7 15  1  0  0  0  0
  9 17  1  0  0  0  0
 10 12  1  0  0  0  0
 10 19  1  0  0  0  0
 11 20  2  0  0  0  0
 13 14  1  0  0  0  0
 13 17  1  0  0  0  0
 13 22  1  0  0  0  0
 15 16  1  0  0  0  0
 17 18  1  0  0  0  0
 17 23  1  0  0  0  0
 19 26  2  0  0  0  0
 19 27  1  0  0  0  0
 20 21  1  0  0  0  0
 20 26  1  0  0  0  0
 22 30  1  0  0  0  0
 23 24  1  0  0  0  0
 23 25  1  0  0  0  0
 23 31  1  0  0  0  0
 27 28  1  0  0  0  0
 27 29  1  0  0  0  0
 30 32  2  0  0  0  0
 30 33  1  0  0  0  0
 30 34  1  0  0  0  0
 31 35  1  0  0  0  0
 35 36  1  0  0  0  0
 35 37  1  0  0  0  0
 35 38  2  0  0  0  0
 36 39  1  0  0  0  0
 39 40  1  0  0  0  0
 39 42  2  0  0  0  0
 39 43  2  0  0  0  0
 40 41  1  0  0  0  0
M  BCL ATM N_TrTrTrPi2 C_TeTeTeTe H_S C_TrTrTrPi C_TrTrTrPi H_S C_TeTeTeTe H_S O_Te2Te2TeTe C_TrTrTrPi N_Tr2TrTrPi N_Tr2TrTrPi C_TeTeTeTe H_S O_Te2Te2TeTe H_S C_TeTeTeTe H_S C_TrTrTrPi C_TrTrTrPi H_S O_Tr2TrTrPi2 C_TeTeTeTe H_S H_S N_Tr2TrTrPi N_TrTrTrPi2 H_S H_S P_TeTeTeTePi O_Tr2TrTrPi2 O_Tr2Tr2TrPi O_Te2Te2Te2Te O_Te2Te2Te2Te P_TeTeTeTePi O_Tr2TrTrPi2 O_Te2Te2TeTe O_Tr2Tr2TrPi S_TeTeTeTePiPi O_Te2Te2TeTe H_S O_Tr2Tr2TrPi O_Tr2Tr2TrPi
M  BCL BND NonConjugatedSingleBond AromaticSingleBond AromaticSingleBond NonConjugatedSingleBond NonConjugatedSingleBondInRing NonConjugatedSingleBondInRing AromaticDoubleBond AromaticSingleBond NonConjugatedSingleBond AromaticDoubleBond NonConjugatedSingleBond NonConjugatedSingleBondInRing NonConjugatedSingleBond NonConjugatedSingleBondInRing AromaticSingleBond AromaticSingleBond AromaticDoubleBond NonConjugatedSingleBond NonConjugatedSingleBondInRing NonConjugatedSingleBond NonConjugatedSingleBond NonConjugatedSingleBond NonConjugatedSingleBond AromaticDoubleBond ConjugatedSingleBond NonConjugatedSingleBond AromaticSingleBond ConjugatedSingleBond NonConjugatedSingleBond NonConjugatedSingleBond NonConjugatedSingleBond NonConjugatedSingleBond NonConjugatedSingleBond ConjugatedDoubleBond ConjugatedSingleBond ConjugatedSingleBond ConjugatedSingleBond ConjugatedSingleBond ConjugatedSingleBond ConjugatedDoubleBond ConjugatedSingleBond ConjugatedSingleBond ConjugatedDoubleBond ConjugatedDoubleBond NonConjugatedSingleBond
M  BCL CHI   2   R   7   R  13   S  17   S  35   R
M  BCL DBI - - - - - - - -
M  END
> <ConfClashScore>
0 

> <ConfOneFourInteractionScore>
-0.981627 

> <ConfScore>
-0.210426 

> <ConfScorePBest>
0.00788848 

> <ConfTolerance>
1.24323 

$$$$
ChEBI.****
  PyMOL2.5          3D                             0

 43 45  0  0  0  0  0  0  0  0999 V2000
    1.0793    0.7947    7.1205 N   0  0  0  1  0  0  0  0  0  0  0  0
    0.5079    0.6121    5.7556 C   0  0  0  1  0  0  0  0  0  0  0  0
   -0.0421    1.4871    5.4787 H   0  0  0  1  0  0  0  0  0  0  0  0
    0.8429    1.8331    7.9840 C   0  0  0  1  0  0  0  0  0  0  0  0
    1.9435   -0.0339    7.7682 C   0  0  0  1  0  0  0  0  0  0  0  0
    2.3045   -0.9103    7.3403 H   0  0  0  1  0  0  0  0  0  0  0  0
   -0.4182   -0.6195    5.7340 C   0  0  0  1  0  0  0  0  0  0  0  0
   -0.8529   -0.7951    6.6959 H   0  0  0  1  0  0  0  0  0  0  0  0
    1.5310    0.3844    4.8390 O   0  0  0  1  0  0  0  0  0  0  0  0
    1.5975    1.5471    9.1296 C   0  0  0  1  0  0  0  0  0  0  0  0
    0.0525    2.8904    7.7937 N   0  0  0  1  0  0  0  0  0  0  0  0
    2.2848    0.3543    8.9667 N   0  0  0  1  0  0  0  0  0  0  0  0
    0.5503   -1.7449    5.3474 C   0  0  0  1  0  0  0  0  0  0  0  0
    0.0514   -2.5023    4.7797 H   0  0  0  1  0  0  0  0  0  0  0  0
   -1.4545   -0.4714    4.7623 O   0  0  0  1  0  0  0  0  0  0  0  0
   -1.3203    0.3432    4.2724 H   0  0  0  1  0  0  0  0  0  0  0  0
    1.6023   -1.0230    4.4965 C   0  0  0  1  0  0  0  0  0  0  0  0
    1.3903   -1.1592    3.4566 H   0  0  0  1  0  0  0  0  0  0  0  0
    1.4959    2.4754   10.1616 C   0  0  0  1  0  0  0  0  0  0  0  0
    0.0568    3.6936    8.8505 C   0  0  0  1  0  0  0  0  0  0  0  0
   -0.5362    4.5443    8.7713 H   0  0  0  1  0  0  0  0  0  0  0  0
    1.1530   -2.3405    6.5254 O   0  0  0  1  0  0  0  0  0  0  0  0
    2.9631   -1.5568    4.8019 C   0  0  0  1  0  0  0  0  0  0  0  0
    3.0276   -2.5824    4.5039 H   0  0  0  1  0  0  0  0  0  0  0  0
    3.1590   -1.4765    5.8508 H   0  0  0  1  0  0  0  0  0  0  0  0
    0.7231    3.5560   10.0077 N   0  0  0  1  0  0  0  0  0  0  0  0
    2.2036    2.2490   11.3239 N   0  0  0  1  0  0  0  0  0  0  0  0
    2.1208    2.8707   12.0769 H   0  0  0  1  0  0  0  0  0  0  0  0
    2.7892    1.4666   11.3965 H   0  0  0  1  0  0  0  0  0  0  0  0
    1.6396   -3.9049    6.4533 P   0  0  0  1  0  0  0  0  0  0  0  0
    3.9217   -0.7668    4.0597 O   0  0  0  1  0  0  0  0  0  0  0  0
    0.8272   -4.7713    5.5702 O   0  0  0  1  0  0  0  0  0  0  0  0
    1.6306   -4.4438    7.9810 O   0  5  0  1  0  0  0  0  0  0  0  0
    3.1670   -3.9913    5.9205 O   0  5  0  1  0  0  0  0  0  0  0  0
    5.3882   -0.4863    4.6482 P   0  0  0  1  0  0  0  0  0  0  0  0
    6.1473    0.0997    3.3406 O   0  0  0  1  0  0  0  0  0  0  0  0
    5.9840   -1.7821    5.0819 O   0  0  0  0  0  0  0  0  0  0  0  0
    5.3105    0.6155    5.6209 O   0  0  0  1  0  0  0  0  0  0  0  0
    5.4364    0.7535    2.1256 S   0  0  0  1  0  0  0  0  0  0  0  0
    4.6279   -0.3598    1.5891 O   0  0  0  1  0  0  0  0  0  0  0  0
    3.8118   -0.4333    2.0894 H   0  0  0  1  0  0  0  0  0  0  0  0
    4.5863    1.8494    2.5873 O   0  0  0  1  0  0  0  0  0  0  0  0
    6.4414    1.2071    1.2082 O   0  0  0  1  0  0  0  0  0  0  0  0
  1  2  1  0  0  0  0
  1  4  1  0  0  0  0
  1  5  1  0  0  0  0
  2  3  1  0  0  0  0
  2  7  1  0  0  0  0
  2  9  1  0  0  0  0
  4 10  2  0  0  0  0
  4 11  1  0  0  0  0
  5  6  1  0  0  0  0
  5 12  2  0  0  0  0
  7  8  1  0  0  0  0
  7 13  1  0  0  0  0
  7 15  1  0  0  0  0
  9 17  1  0  0  0  0
 10 12  1  0  0  0  0
 10 19  1  0  0  0  0
 11 20  2  0  0  0  0
 13 14  1  0  0  0  0
 13 17  1  0  0  0  0
 13 22  1  0  0  0  0
 15 16  1  0  0  0  0
 17 18  1  0  0  0  0
 17 23  1  0  0  0  0
 19 26  2  0  0  0  0
 19 27  1  0  0  0  0
 20 21  1  0  0  0  0
 20 26  1  0  0  0  0
 22 30  1  0  0  0  0
 23 24  1  0  0  0  0
 23 25  1  0  0  0  0
 23 31  1  0  0  0  0
 27 28  1  0  0  0  0
 27 29  1  0  0  0  0
 30 32  2  0  0  0  0
 30 33  1  0  0  0  0
 30 34  1  0  0  0  0
 31 35  1  0  0  0  0
 35 36  1  0  0  0  0
 35 37  1  0  0  0  0
 35 38  2  0  0  0  0
 36 39  1  0  0  0  0
 39 40  1  0  0  0  0
 39 42  2  0  0  0  0
 39 43  2  0  0  0  0
 40 41  1  0  0  0  0
M  BCL ATM N_TrTrTrPi2 C_TeTeTeTe H_S C_TrTrTrPi C_TrTrTrPi H_S C_TeTeTeTe H_S O_Te2Te2TeTe C_TrTrTrPi N_Tr2TrTrPi N_Tr2TrTrPi C_TeTeTeTe H_S O_Te2Te2TeTe H_S C_TeTeTeTe H_S C_TrTrTrPi C_TrTrTrPi H_S O_Tr2TrTrPi2 C_TeTeTeTe H_S H_S N_Tr2TrTrPi N_TrTrTrPi2 H_S H_S P_TeTeTeTePi O_Tr2TrTrPi2 O_Tr2Tr2TrPi O_Te2Te2Te2Te O_Te2Te2Te2Te P_TeTeTeTePi O_Tr2TrTrPi2 O_Te2Te2TeTe O_Tr2Tr2TrPi S_TeTeTeTePiPi O_Te2Te2TeTe H_S O_Tr2Tr2TrPi O_Tr2Tr2TrPi
M  BCL BND NonConjugatedSingleBond AromaticSingleBond AromaticSingleBond NonConjugatedSingleBond NonConjugatedSingleBondInRing NonConjugatedSingleBondInRing AromaticDoubleBond AromaticSingleBond NonConjugatedSingleBond AromaticDoubleBond NonConjugatedSingleBond NonConjugatedSingleBondInRing NonConjugatedSingleBond NonConjugatedSingleBondInRing AromaticSingleBond AromaticSingleBond AromaticDoubleBond NonConjugatedSingleBond NonConjugatedSingleBondInRing NonConjugatedSingleBond NonConjugatedSingleBond NonConjugatedSingleBond NonConjugatedSingleBond AromaticDoubleBond ConjugatedSingleBond NonConjugatedSingleBond AromaticSingleBond ConjugatedSingleBond NonConjugatedSingleBond NonConjugatedSingleBond NonConjugatedSingleBond NonConjugatedSingleBond NonConjugatedSingleBond ConjugatedDoubleBond ConjugatedSingleBond ConjugatedSingleBond ConjugatedSingleBond ConjugatedSingleBond ConjugatedSingleBond ConjugatedDoubleBond ConjugatedSingleBond ConjugatedSingleBond ConjugatedDoubleBond ConjugatedDoubleBond NonConjugatedSingleBond
M  BCL CHI   2   R   7   R  13   S  17   S  35   R
M  BCL DBI - - - - - - - -
M  END
> <ConfClashScore>
0 

> <ConfOneFourInteractionScore>
-0.981777 

> <ConfScore>
-0.209986 

> <ConfScorePBest>
0.00778548 

> <ConfTolerance>
1.35921 

$$$$
ChEBI.****
  PyMOL2.5          3D                             0

 43 45  0  0  0  0  0  0  0  0999 V2000
    1.0600    0.7848    7.1051 N   0  0  0  1  0  0  0  0  0  0  0  0
    0.4886    0.6220    5.7679 C   0  0  0  1  0  0  0  0  0  0  0  0
    0.3868   -0.4201    5.5474 H   0  0  0  1  0  0  0  0  0  0  0  0
    0.8461    1.8226    7.9751 C   0  0  0  1  0  0  0  0  0  0  0  0
    1.9137   -0.0616    7.7435 C   0  0  0  1  0  0  0  0  0  0  0  0
    2.2575   -0.9418    7.3091 H   0  0  0  1  0  0  0  0  0  0  0  0
    1.3746    1.3036    4.7232 C   0  0  0  1  0  0  0  0  0  0  0  0
    1.8852    2.1498    5.1331 H   0  0  0  1  0  0  0  0  0  0  0  0
   -0.7829    1.2758    5.6858 O   0  0  0  1  0  0  0  0  0  0  0  0
    1.6022    1.5179    9.1150 C   0  0  0  1  0  0  0  0  0  0  0  0
    0.0725    2.8940    7.7948 N   0  0  0  1  0  0  0  0  0  0  0  0
    2.2683    0.3146    8.9420 N   0  0  0  1  0  0  0  0  0  0  0  0
    0.3373    1.7227    3.6919 C   0  0  0  1  0  0  0  0  0  0  0  0
    0.1504    0.9256    3.0030 H   0  0  0  1  0  0  0  0  0  0  0  0
    2.3268    0.3943    4.1696 O   0  0  0  1  0  0  0  0  0  0  0  0
    2.8284    0.8358    3.4804 H   0  0  0  1  0  0  0  0  0  0  0  0
   -0.8725    2.0298    4.4629 C   0  0  0  1  0  0  0  0  0  0  0  0
   -1.7437    1.7399    3.9135 H   0  0  0  1  0  0  0  0  0  0  0  0
    1.5222    2.4424   10.1522 C   0  0  0  1  0  0  0  0  0  0  0  0
    0.0963    3.6915    8.8556 C   0  0  0  1  0  0  0  0  0  0  0  0
   -0.4826    4.5524    8.7842 H   0  0  0  1  0  0  0  0  0  0  0  0
    0.7881    2.8952    2.9653 O   0  0  0  1  0  0  0  0  0  0  0  0
   -0.9337    3.4526    4.7543 C   0  0  0  1  0  0  0  0  0  0  0  0
   -0.9058    3.9919    3.8306 H   0  0  0  1  0  0  0  0  0  0  0  0
   -0.0834    3.7165    5.3479 H   0  0  0  1  0  0  0  0  0  0  0  0
    0.7668    3.5367   10.0082 N   0  0  0  1  0  0  0  0  0  0  0  0
    2.1927    2.2916   11.3482 N   0  0  0  1  0  0  0  0  0  0  0  0
    2.7787    1.5184   11.4873 H   0  0  0  1  0  0  0  0  0  0  0  0
    2.0832    2.9575   12.0588 H   0  0  0  1  0  0  0  0  0  0  0  0
    0.0007    3.4987    1.6594 P   0  0  0  1  0  0  0  0  0  0  0  0
   -2.1326    3.8279    5.4723 O   0  0  0  1  0  0  0  0  0  0  0  0
    0.4864    4.7923    1.1292 O   0  0  0  1  0  0  0  0  0  0  0  0
   -1.5823    3.5469    2.0002 O   0  5  0  1  0  0  0  0  0  0  0  0
    0.0371    2.3670    0.5008 O   0  5  0  1  0  0  0  0  0  0  0  0
   -2.4419    5.3135    5.9244 P   0  0  0  1  0  0  0  0  0  0  0  0
   -1.2271    5.7562    6.9031 O   0  0  0  1  0  0  0  0  0  0  0  0
   -3.7979    5.3276    6.5106 O   0  0  0  0  0  0  0  0  0  0  0  0
   -2.3498    6.2383    4.7698 O   0  0  0  1  0  0  0  0  0  0  0  0
   -0.8869    7.2309    7.2856 S   0  0  0  1  0  0  0  0  0  0  0  0
    0.4415    7.2370    7.8369 O   0  0  0  1  0  0  0  0  0  0  0  0
    0.9345    6.4883    7.4934 H   0  0  0  1  0  0  0  0  0  0  0  0
   -0.9181    8.0382    6.1117 O   0  0  0  1  0  0  0  0  0  0  0  0
   -1.8751    7.5472    8.2525 O   0  0  0  1  0  0  0  0  0  0  0  0
  1  2  1  0  0  0  0
  1  4  1  0  0  0  0
  1  5  1  0  0  0  0
  2  3  1  0  0  0  0
  2  7  1  0  0  0  0
  2  9  1  0  0  0  0
  4 10  2  0  0  0  0
  4 11  1  0  0  0  0
  5  6  1  0  0  0  0
  5 12  2  0  0  0  0
  7  8  1  0  0  0  0
  7 13  1  0  0  0  0
  7 15  1  0  0  0  0
  9 17  1  0  0  0  0
 10 12  1  0  0  0  0
 10 19  1  0  0  0  0
 11 20  2  0  0  0  0
 13 14  1  0  0  0  0
 13 17  1  0  0  0  0
 13 22  1  0  0  0  0
 15 16  1  0  0  0  0
 17 18  1  0  0  0  0
 17 23  1  0  0  0  0
 19 26  2  0  0  0  0
 19 27  1  0  0  0  0
 20 21  1  0  0  0  0
 20 26  1  0  0  0  0
 22 30  1  0  0  0  0
 23 24  1  0  0  0  0
 23 25  1  0  0  0  0
 23 31  1  0  0  0  0
 27 28  1  0  0  0  0
 27 29  1  0  0  0  0
 30 32  2  0  0  0  0
 30 33  1  0  0  0  0
 30 34  1  0  0  0  0
 31 35  1  0  0  0  0
 35 36  1  0  0  0  0
 35 37  1  0  0  0  0
 35 38  2  0  0  0  0
 36 39  1  0  0  0  0
 39 40  1  0  0  0  0
 39 42  2  0  0  0  0
 39 43  2  0  0  0  0
 40 41  1  0  0  0  0
M  BCL ATM N_TrTrTrPi2 C_TeTeTeTe H_S C_TrTrTrPi C_TrTrTrPi H_S C_TeTeTeTe H_S O_Te2Te2TeTe C_TrTrTrPi N_Tr2TrTrPi N_Tr2TrTrPi C_TeTeTeTe H_S O_Te2Te2TeTe H_S C_TeTeTeTe H_S C_TrTrTrPi C_TrTrTrPi H_S O_Tr2TrTrPi2 C_TeTeTeTe H_S H_S N_Tr2TrTrPi N_TrTrTrPi2 H_S H_S P_TeTeTeTePi O_Tr2TrTrPi2 O_Tr2Tr2TrPi O_Te2Te2Te2Te O_Te2Te2Te2Te P_TeTeTeTePi O_Tr2TrTrPi2 O_Te2Te2TeTe O_Tr2Tr2TrPi S_TeTeTeTePiPi O_Te2Te2TeTe H_S O_Tr2Tr2TrPi O_Tr2Tr2TrPi
M  BCL BND NonConjugatedSingleBond AromaticSingleBond AromaticSingleBond NonConjugatedSingleBond NonConjugatedSingleBondInRing NonConjugatedSingleBondInRing AromaticDoubleBond AromaticSingleBond NonConjugatedSingleBond AromaticDoubleBond NonConjugatedSingleBond NonConjugatedSingleBondInRing NonConjugatedSingleBond NonConjugatedSingleBondInRing AromaticSingleBond AromaticSingleBond AromaticDoubleBond NonConjugatedSingleBond NonConjugatedSingleBondInRing NonConjugatedSingleBond NonConjugatedSingleBond NonConjugatedSingleBond NonConjugatedSingleBond AromaticDoubleBond ConjugatedSingleBond NonConjugatedSingleBond AromaticSingleBond ConjugatedSingleBond NonConjugatedSingleBond NonConjugatedSingleBond NonConjugatedSingleBond NonConjugatedSingleBond NonConjugatedSingleBond ConjugatedDoubleBond ConjugatedSingleBond ConjugatedSingleBond ConjugatedSingleBond ConjugatedSingleBond ConjugatedSingleBond ConjugatedDoubleBond ConjugatedSingleBond ConjugatedSingleBond ConjugatedDoubleBond ConjugatedDoubleBond NonConjugatedSingleBond
M  BCL CHI   2   R   7   R  13   S  17   S  35   R
M  BCL DBI - - - - - - - -
M  END
> <ConfClashScore>
0 

> <ConfOneFourInteractionScore>
-0.983488 

> <ConfScore>
-0.20667 

> <ConfScorePBest>
0.00768248 

> <ConfTolerance>
1.25463 

$$$$
ChEBI.****
  PyMOL2.5          3D                             0

 43 45  0  0  0  0  0  0  0  0999 V2000
    1.0881    0.8036    7.0929 N   0  0  0  1  0  0  0  0  0  0  0  0
    0.3962    0.5560    5.8127 C   0  0  0  1  0  0  0  0  0  0  0  0
   -0.3211   -0.2276    5.9402 H   0  0  0  1  0  0  0  0  0  0  0  0
    0.8652    1.8352    7.9681 C   0  0  0  1  0  0  0  0  0  0  0  0
    1.9364   -0.0466    7.7334 C   0  0  0  1  0  0  0  0  0  0  0  0
    2.2849   -0.9235    7.2961 H   0  0  0  1  0  0  0  0  0  0  0  0
    1.4106    0.1795    4.7212 C   0  0  0  1  0  0  0  0  0  0  0  0
    2.2415   -0.3536    5.1336 H   0  0  0  1  0  0  0  0  0  0  0  0
   -0.2323    1.7227    5.3660 O   0  0  0  1  0  0  0  0  0  0  0  0
    1.6108    1.5231    9.1128 C   0  0  0  1  0  0  0  0  0  0  0  0
    0.0925    2.9073    7.7879 N   0  0  0  1  0  0  0  0  0  0  0  0
    2.2795    0.3215    8.9378 N   0  0  0  1  0  0  0  0  0  0  0  0
    1.8398    1.5343    4.1862 C   0  0  0  1  0  0  0  0  0  0  0  0
    2.1095    1.4726    3.1526 H   0  0  0  1  0  0  0  0  0  0  0  0
    0.7988   -0.6080    3.6986 O   0  0  0  1  0  0  0  0  0  0  0  0
    1.4426   -1.2228    3.3393 H   0  0  0  1  0  0  0  0  0  0  0  0
    0.5691    2.3981    4.3803 C   0  0  0  1  0  0  0  0  0  0  0  0
    0.0319    2.4788    3.4585 H   0  0  0  1  0  0  0  0  0  0  0  0
    1.5203    2.4403   10.1557 C   0  0  0  1  0  0  0  0  0  0  0  0
    0.1058    3.6974    8.8545 C   0  0  0  1  0  0  0  0  0  0  0  0
   -0.4732    4.5584    8.7836 H   0  0  0  1  0  0  0  0  0  0  0  0
    2.9527    2.0659    4.9452 O   0  0  0  1  0  0  0  0  0  0  0  0
    0.9401    3.7620    4.8622 C   0  0  0  1  0  0  0  0  0  0  0  0
    1.3300    4.3413    4.0516 H   0  0  0  1  0  0  0  0  0  0  0  0
    1.6767    3.6876    5.6348 H   0  0  0  1  0  0  0  0  0  0  0  0
    0.7655    3.5350   10.0122 N   0  0  0  1  0  0  0  0  0  0  0  0
    2.1752    2.2827   11.3486 N   0  0  0  1  0  0  0  0  0  0  0  0
    2.7439    1.4982   11.4955 H   0  0  0  1  0  0  0  0  0  0  0  0
    2.0750    2.9544   12.0551 H   0  0  0  1  0  0  0  0  0  0  0  0
    4.4757    1.7970    4.3996 P   0  0  0  1  0  0  0  0  0  0  0  0
   -0.2580    4.3852    5.3819 O   0  0  0  1  0  0  0  0  0  0  0  0
    4.3599    1.7359    2.9254 O   0  0  0  1  0  0  0  0  0  0  0  0
    5.0627    0.4776    5.1337 O   0  5  0  1  0  0  0  0  0  0  0  0
    5.4040    3.0454    4.8513 O   0  5  0  1  0  0  0  0  0  0  0  0
   -0.2838    5.9429    5.7342 P   0  0  0  1  0  0  0  0  0  0  0  0
   -0.0263    6.6034    4.2155 O   0  0  0  1  0  0  0  0  0  0  0  0
    0.8224    6.2774    6.6889 O   0  0  0  0  0  0  0  0  0  0  0  0
   -1.6610    6.3467    6.1623 O   0  0  0  1  0  0  0  0  0  0  0  0
   -0.8009    6.6946    2.7638 S   0  0  0  1  0  0  0  0  0  0  0  0
   -1.2633    5.3570    2.5074 O   0  0  0  1  0  0  0  0  0  0  0  0
   -0.5539    4.7339    2.6809 H   0  0  0  1  0  0  0  0  0  0  0  0
   -1.8391    7.6224    3.0671 O   0  0  0  1  0  0  0  0  0  0  0  0
    0.1838    7.1690    1.8601 O   0  0  0  1  0  0  0  0  0  0  0  0
  1  2  1  0  0  0  0
  1  4  1  0  0  0  0
  1  5  1  0  0  0  0
  2  3  1  0  0  0  0
  2  7  1  0  0  0  0
  2  9  1  0  0  0  0
  4 10  2  0  0  0  0
  4 11  1  0  0  0  0
  5  6  1  0  0  0  0
  5 12  2  0  0  0  0
  7  8  1  0  0  0  0
  7 13  1  0  0  0  0
  7 15  1  0  0  0  0
  9 17  1  0  0  0  0
 10 12  1  0  0  0  0
 10 19  1  0  0  0  0
 11 20  2  0  0  0  0
 13 14  1  0  0  0  0
 13 17  1  0  0  0  0
 13 22  1  0  0  0  0
 15 16  1  0  0  0  0
 17 18  1  0  0  0  0
 17 23  1  0  0  0  0
 19 26  2  0  0  0  0
 19 27  1  0  0  0  0
 20 21  1  0  0  0  0
 20 26  1  0  0  0  0
 22 30  1  0  0  0  0
 23 24  1  0  0  0  0
 23 25  1  0  0  0  0
 23 31  1  0  0  0  0
 27 28  1  0  0  0  0
 27 29  1  0  0  0  0
 30 32  2  0  0  0  0
 30 33  1  0  0  0  0
 30 34  1  0  0  0  0
 31 35  1  0  0  0  0
 35 36  1  0  0  0  0
 35 37  1  0  0  0  0
 35 38  2  0  0  0  0
 36 39  1  0  0  0  0
 39 40  1  0  0  0  0
 39 42  2  0  0  0  0
 39 43  2  0  0  0  0
 40 41  1  0  0  0  0
M  BCL ATM N_TrTrTrPi2 C_TeTeTeTe H_S C_TrTrTrPi C_TrTrTrPi H_S C_TeTeTeTe H_S O_Te2Te2TeTe C_TrTrTrPi N_Tr2TrTrPi N_Tr2TrTrPi C_TeTeTeTe H_S O_Te2Te2TeTe H_S C_TeTeTeTe H_S C_TrTrTrPi C_TrTrTrPi H_S O_Tr2TrTrPi2 C_TeTeTeTe H_S H_S N_Tr2TrTrPi N_TrTrTrPi2 H_S H_S P_TeTeTeTePi O_Tr2TrTrPi2 O_Tr2Tr2TrPi O_Te2Te2Te2Te O_Te2Te2Te2Te P_TeTeTeTePi O_Tr2TrTrPi2 O_Te2Te2TeTe O_Tr2Tr2TrPi S_TeTeTeTePiPi O_Te2Te2TeTe H_S O_Tr2Tr2TrPi O_Tr2Tr2TrPi
M  BCL BND NonConjugatedSingleBond AromaticSingleBond AromaticSingleBond NonConjugatedSingleBond NonConjugatedSingleBondInRing NonConjugatedSingleBondInRing AromaticDoubleBond AromaticSingleBond NonConjugatedSingleBond AromaticDoubleBond NonConjugatedSingleBond NonConjugatedSingleBondInRing NonConjugatedSingleBond NonConjugatedSingleBondInRing AromaticSingleBond AromaticSingleBond AromaticDoubleBond NonConjugatedSingleBond NonConjugatedSingleBondInRing NonConjugatedSingleBond NonConjugatedSingleBond NonConjugatedSingleBond NonConjugatedSingleBond AromaticDoubleBond ConjugatedSingleBond NonConjugatedSingleBond AromaticSingleBond ConjugatedSingleBond NonConjugatedSingleBond NonConjugatedSingleBond NonConjugatedSingleBond NonConjugatedSingleBond NonConjugatedSingleBond ConjugatedDoubleBond ConjugatedSingleBond ConjugatedSingleBond ConjugatedSingleBond ConjugatedSingleBond ConjugatedSingleBond ConjugatedDoubleBond ConjugatedSingleBond ConjugatedSingleBond ConjugatedDoubleBond ConjugatedDoubleBond NonConjugatedSingleBond
M  BCL CHI   2   R   7   R  13   S  17   S  35   R
M  BCL DBI - - - - - - - -
M  END
> <ConfClashScore>
0 

> <ConfOneFourInteractionScore>
-0.984316 

> <ConfScore>
-0.205663 

> <ConfScorePBest>
0.00757948 

> <ConfTolerance>
1.28523 

$$$$
ChEBI.****
  PyMOL2.5          3D                             0

 43 45  0  0  0  0  0  0  0  0999 V2000
    1.0642    0.7867    7.1059 N   0  0  0  1  0  0  0  0  0  0  0  0
    0.4880    0.6227    5.7569 C   0  0  0  1  0  0  0  0  0  0  0  0
   -0.1556   -0.2321    5.7450 H   0  0  0  1  0  0  0  0  0  0  0  0
    0.8472    1.8225    7.9776 C   0  0  0  1  0  0  0  0  0  0  0  0
    1.9208   -0.0579    7.7429 C   0  0  0  1  0  0  0  0  0  0  0  0
    2.2673   -0.9363    7.3070 H   0  0  0  1  0  0  0  0  0  0  0  0
    1.6157    0.4459    4.7216 C   0  0  0  1  0  0  0  0  0  0  0  0
    2.4818   -0.0007    5.1636 H   0  0  0  1  0  0  0  0  0  0  0  0
   -0.2300    1.7627    5.4054 O   0  0  0  1  0  0  0  0  0  0  0  0
    1.6046    1.5186    9.1168 C   0  0  0  1  0  0  0  0  0  0  0  0
    0.0701    2.8917    7.7991 N   0  0  0  1  0  0  0  0  0  0  0  0
    2.2746    0.3177    8.9419 N   0  0  0  1  0  0  0  0  0  0  0  0
    1.8924    1.8935    4.2954 C   0  0  0  1  0  0  0  0  0  0  0  0
    2.2103    1.9390    3.2747 H   0  0  0  1  0  0  0  0  0  0  0  0
    1.1831   -0.3462    3.6146 O   0  0  0  1  0  0  0  0  0  0  0  0
    0.2584   -0.5780    3.7283 H   0  0  0  1  0  0  0  0  0  0  0  0
    0.5321    2.5775    4.4789 C   0  0  0  1  0  0  0  0  0  0  0  0
    0.0228    2.6402    3.5400 H   0  0  0  1  0  0  0  0  0  0  0  0
    1.5219    2.4413   10.1554 C   0  0  0  1  0  0  0  0  0  0  0  0
    0.0917    3.6876    8.8611 C   0  0  0  1  0  0  0  0  0  0  0  0
   -0.4900    4.5469    8.7912 H   0  0  0  1  0  0  0  0  0  0  0  0
    2.8984    2.5015    5.1428 O   0  0  0  1  0  0  0  0  0  0  0  0
    0.7193    3.9498    5.0371 C   0  0  0  1  0  0  0  0  0  0  0  0
    1.2311    4.5654    4.3271 H   0  0  0  1  0  0  0  0  0  0  0  0
    1.2877    3.9006    5.9424 H   0  0  0  1  0  0  0  0  0  0  0  0
    0.7630    3.5333   10.0133 N   0  0  0  1  0  0  0  0  0  0  0  0
    2.1887    2.2918   11.3428 N   0  0  0  1  0  0  0  0  0  0  0  0
    2.7053    1.4771   11.5155 H   0  0  0  1  0  0  0  0  0  0  0  0
    2.1490    2.9995   12.0195 H   0  0  0  1  0  0  0  0  0  0  0  0
    4.4952    2.3161    4.8179 P   0  0  0  1  0  0  0  0  0  0  0  0
   -0.5934    4.4970    5.3084 O   0  0  0  1  0  0  0  0  0  0  0  0
    4.8874    0.8895    4.8546 O   0  0  0  1  0  0  0  0  0  0  0  0
    5.4042    3.2027    5.8239 O   0  5  0  1  0  0  0  0  0  0  0  0
    4.7965    2.9273    3.3483 O   0  5  0  1  0  0  0  0  0  0  0  0
   -0.7658    5.9843    5.7327 P   0  0  0  1  0  0  0  0  0  0  0  0
   -0.3462    6.1295    7.3489 O   0  0  0  1  0  0  0  0  0  0  0  0
   -2.2474    6.3688    5.6782 O   0  0  0  0  0  0  0  0  0  0  0  0
    0.0878    6.8001    4.8515 O   0  0  0  1  0  0  0  0  0  0  0  0
    0.5793    7.1213    8.3078 S   0  0  0  1  0  0  0  0  0  0  0  0
    0.5842    8.2980    7.3930 O   0  0  0  1  0  0  0  0  0  0  0  0
    0.7507    9.0966    7.8990 H   0  0  0  1  0  0  0  0  0  0  0  0
   -0.0544    7.2600    9.4856 O   0  0  0  1  0  0  0  0  0  0  0  0
    1.8666    6.5370    8.1748 O   0  0  0  1  0  0  0  0  0  0  0  0
  1  2  1  0  0  0  0
  1  4  1  0  0  0  0
  1  5  1  0  0  0  0
  2  3  1  0  0  0  0
  2  7  1  0  0  0  0
  2  9  1  0  0  0  0
  4 10  2  0  0  0  0
  4 11  1  0  0  0  0
  5  6  1  0  0  0  0
  5 12  2  0  0  0  0
  7  8  1  0  0  0  0
  7 13  1  0  0  0  0
  7 15  1  0  0  0  0
  9 17  1  0  0  0  0
 10 12  1  0  0  0  0
 10 19  1  0  0  0  0
 11 20  2  0  0  0  0
 13 14  1  0  0  0  0
 13 17  1  0  0  0  0
 13 22  1  0  0  0  0
 15 16  1  0  0  0  0
 17 18  1  0  0  0  0
 17 23  1  0  0  0  0
 19 26  2  0  0  0  0
 19 27  1  0  0  0  0
 20 21  1  0  0  0  0
 20 26  1  0  0  0  0
 22 30  1  0  0  0  0
 23 24  1  0  0  0  0
 23 25  1  0  0  0  0
 23 31  1  0  0  0  0
 27 28  1  0  0  0  0
 27 29  1  0  0  0  0
 30 32  2  0  0  0  0
 30 33  1  0  0  0  0
 30 34  1  0  0  0  0
 31 35  1  0  0  0  0
 35 36  1  0  0  0  0
 35 37  1  0  0  0  0
 35 38  2  0  0  0  0
 36 39  1  0  0  0  0
 39 40  1  0  0  0  0
 39 42  2  0  0  0  0
 39 43  2  0  0  0  0
 40 41  1  0  0  0  0
M  BCL ATM N_TrTrTrPi2 C_TeTeTeTe H_S C_TrTrTrPi C_TrTrTrPi H_S C_TeTeTeTe H_S O_Te2Te2TeTe C_TrTrTrPi N_Tr2TrTrPi N_Tr2TrTrPi C_TeTeTeTe H_S O_Te2Te2TeTe H_S C_TeTeTeTe H_S C_TrTrTrPi C_TrTrTrPi H_S O_Tr2TrTrPi2 C_TeTeTeTe H_S H_S N_Tr2TrTrPi N_TrTrTrPi2 H_S H_S P_TeTeTeTePi O_Tr2TrTrPi2 O_Tr2Tr2TrPi O_Te2Te2Te2Te O_Te2Te2Te2Te P_TeTeTeTePi O_Tr2TrTrPi2 O_Te2Te2TeTe O_Tr2Tr2TrPi S_TeTeTeTePiPi O_Te2Te2TeTe H_S O_Tr2Tr2TrPi O_Tr2Tr2TrPi
M  BCL BND NonConjugatedSingleBond AromaticSingleBond AromaticSingleBond NonConjugatedSingleBond NonConjugatedSingleBondInRing NonConjugatedSingleBondInRing AromaticDoubleBond AromaticSingleBond NonConjugatedSingleBond AromaticDoubleBond NonConjugatedSingleBond NonConjugatedSingleBondInRing NonConjugatedSingleBond NonConjugatedSingleBondInRing AromaticSingleBond AromaticSingleBond AromaticDoubleBond NonConjugatedSingleBond NonConjugatedSingleBondInRing NonConjugatedSingleBond NonConjugatedSingleBond NonConjugatedSingleBond NonConjugatedSingleBond AromaticDoubleBond ConjugatedSingleBond NonConjugatedSingleBond AromaticSingleBond ConjugatedSingleBond NonConjugatedSingleBond NonConjugatedSingleBond NonConjugatedSingleBond NonConjugatedSingleBond NonConjugatedSingleBond ConjugatedDoubleBond ConjugatedSingleBond ConjugatedSingleBond ConjugatedSingleBond ConjugatedSingleBond ConjugatedSingleBond ConjugatedDoubleBond ConjugatedSingleBond ConjugatedSingleBond ConjugatedDoubleBond ConjugatedDoubleBond NonConjugatedSingleBond
M  BCL CHI   2   R   7   R  13   S  17   S  35   R
M  BCL DBI - - - - - - - -
M  END
> <ConfClashScore>
0 

> <ConfOneFourInteractionScore>
-0.981777 

> <ConfScore>
-0.205117 

> <ConfScorePBest>
0.00747648 

> <ConfTolerance>
1.39056 

$$$$
ChEBI.****
  PyMOL2.5          3D                             0

 43 45  0  0  0  0  0  0  0  0999 V2000
    1.0538    0.7824    7.0944 N   0  0  0  1  0  0  0  0  0  0  0  0
    0.4721    0.6280    5.7466 C   0  0  0  1  0  0  0  0  0  0  0  0
   -0.5955    0.6142    5.8178 H   0  0  0  1  0  0  0  0  0  0  0  0
    0.8479    1.8168    7.9705 C   0  0  0  1  0  0  0  0  0  0  0  0
    1.9054   -0.0714    7.7256 C   0  0  0  1  0  0  0  0  0  0  0  0
    2.2434   -0.9510    7.2856 H   0  0  0  1  0  0  0  0  0  0  0  0
    0.9790   -0.6584    5.0917 C   0  0  0  1  0  0  0  0  0  0  0  0
    1.9640   -0.9081    5.4269 H   0  0  0  1  0  0  0  0  0  0  0  0
    0.9014    1.6945    4.8928 O   0  0  0  1  0  0  0  0  0  0  0  0
    1.6063    1.5026    9.1062 C   0  0  0  1  0  0  0  0  0  0  0  0
    0.0790    2.8929    7.7982 N   0  0  0  1  0  0  0  0  0  0  0  0
    2.2659    0.2969    8.9249 N   0  0  0  1  0  0  0  0  0  0  0  0
    0.9733   -0.2584    3.6236 C   0  0  0  1  0  0  0  0  0  0  0  0
    0.0086   -0.4277    3.1928 H   0  0  0  1  0  0  0  0  0  0  0  0
    0.0977   -1.7564    5.3400 O   0  0  0  1  0  0  0  0  0  0  0  0
    0.6060   -2.5140    5.6388 H   0  0  0  1  0  0  0  0  0  0  0  0
    1.2976    1.1723    3.6113 C   0  0  0  1  0  0  0  0  0  0  0  0
    0.7596    1.6660    2.8292 H   0  0  0  1  0  0  0  0  0  0  0  0
    1.5343    2.4221   10.1484 C   0  0  0  1  0  0  0  0  0  0  0  0
    0.1103    3.6848    8.8630 C   0  0  0  1  0  0  0  0  0  0  0  0
   -0.4646    4.5490    8.7980 H   0  0  0  1  0  0  0  0  0  0  0  0
    1.9714   -1.0121    2.8876 O   0  0  0  1  0  0  0  0  0  0  0  0
    2.7641    1.3663    3.4070 C   0  0  0  1  0  0  0  0  0  0  0  0
    3.3099    0.8438    4.1647 H   0  0  0  1  0  0  0  0  0  0  0  0
    3.0032    2.4084    3.4491 H   0  0  0  1  0  0  0  0  0  0  0  0
    0.7839    3.5208   10.0126 N   0  0  0  1  0  0  0  0  0  0  0  0
    2.1891    2.3150   11.3706 N   0  0  0  1  0  0  0  0  0  0  0  0
    2.8239    1.5843   11.5240 H   0  0  0  1  0  0  0  0  0  0  0  0
    2.0156    2.9701   12.0785 H   0  0  0  1  0  0  0  0  0  0  0  0
    1.6396   -1.6177    1.4001 P   0  0  0  1  0  0  0  0  0  0  0  0
    3.1008    0.8348    2.1004 O   0  0  0  1  0  0  0  0  0  0  0  0
    0.2502   -2.1253    1.3538 O   0  0  0  1  0  0  0  0  0  0  0  0
    2.6697   -2.8680    1.3880 O   0  5  0  1  0  0  0  0  0  0  0  0
    2.1041   -0.5825    0.2437 O   0  5  0  1  0  0  0  0  0  0  0  0
    4.6240    0.7712    1.6776 P   0  0  0  1  0  0  0  0  0  0  0  0
    5.2191   -0.4144    2.6002 O   0  0  0  1  0  0  0  0  0  0  0  0
    5.2402    2.0532    2.0635 O   0  0  0  0  0  0  0  0  0  0  0  0
    4.7594    0.3035    0.2812 O   0  0  0  1  0  0  0  0  0  0  0  0
    5.9948   -1.7029    2.0428 S   0  0  0  1  0  0  0  0  0  0  0  0
    6.1742   -1.4773    0.6258 O   0  0  0  1  0  0  0  0  0  0  0  0
    6.3022   -2.3184    0.1811 H   0  0  0  1  0  0  0  0  0  0  0  0
    7.2058   -1.6739    2.8128 O   0  0  0  1  0  0  0  0  0  0  0  0
    5.1417   -2.8319    2.3138 O   0  0  0  1  0  0  0  0  0  0  0  0
  1  2  1  0  0  0  0
  1  4  1  0  0  0  0
  1  5  1  0  0  0  0
  2  3  1  0  0  0  0
  2  7  1  0  0  0  0
  2  9  1  0  0  0  0
  4 10  2  0  0  0  0
  4 11  1  0  0  0  0
  5  6  1  0  0  0  0
  5 12  2  0  0  0  0
  7  8  1  0  0  0  0
  7 13  1  0  0  0  0
  7 15  1  0  0  0  0
  9 17  1  0  0  0  0
 10 12  1  0  0  0  0
 10 19  1  0  0  0  0
 11 20  2  0  0  0  0
 13 14  1  0  0  0  0
 13 17  1  0  0  0  0
 13 22  1  0  0  0  0
 15 16  1  0  0  0  0
 17 18  1  0  0  0  0
 17 23  1  0  0  0  0
 19 26  2  0  0  0  0
 19 27  1  0  0  0  0
 20 21  1  0  0  0  0
 20 26  1  0  0  0  0
 22 30  1  0  0  0  0
 23 24  1  0  0  0  0
 23 25  1  0  0  0  0
 23 31  1  0  0  0  0
 27 28  1  0  0  0  0
 27 29  1  0  0  0  0
 30 32  2  0  0  0  0
 30 33  1  0  0  0  0
 30 34  1  0  0  0  0
 31 35  1  0  0  0  0
 35 36  1  0  0  0  0
 35 37  1  0  0  0  0
 35 38  2  0  0  0  0
 36 39  1  0  0  0  0
 39 40  1  0  0  0  0
 39 42  2  0  0  0  0
 39 43  2  0  0  0  0
 40 41  1  0  0  0  0
M  BCL ATM N_TrTrTrPi2 C_TeTeTeTe H_S C_TrTrTrPi C_TrTrTrPi H_S C_TeTeTeTe H_S O_Te2Te2TeTe C_TrTrTrPi N_Tr2TrTrPi N_Tr2TrTrPi C_TeTeTeTe H_S O_Te2Te2TeTe H_S C_TeTeTeTe H_S C_TrTrTrPi C_TrTrTrPi H_S O_Tr2TrTrPi2 C_TeTeTeTe H_S H_S N_Tr2TrTrPi N_TrTrTrPi2 H_S H_S P_TeTeTeTePi O_Tr2TrTrPi2 O_Tr2Tr2TrPi O_Te2Te2Te2Te O_Te2Te2Te2Te P_TeTeTeTePi O_Tr2TrTrPi2 O_Te2Te2TeTe O_Tr2Tr2TrPi S_TeTeTeTePiPi O_Te2Te2TeTe H_S O_Tr2Tr2TrPi O_Tr2Tr2TrPi
M  BCL BND NonConjugatedSingleBond AromaticSingleBond AromaticSingleBond NonConjugatedSingleBond NonConjugatedSingleBondInRing NonConjugatedSingleBondInRing AromaticDoubleBond AromaticSingleBond NonConjugatedSingleBond AromaticDoubleBond NonConjugatedSingleBond NonConjugatedSingleBondInRing NonConjugatedSingleBond NonConjugatedSingleBondInRing AromaticSingleBond AromaticSingleBond AromaticDoubleBond NonConjugatedSingleBond NonConjugatedSingleBondInRing NonConjugatedSingleBond NonConjugatedSingleBond NonConjugatedSingleBond NonConjugatedSingleBond AromaticDoubleBond ConjugatedSingleBond NonConjugatedSingleBond AromaticSingleBond ConjugatedSingleBond NonConjugatedSingleBond NonConjugatedSingleBond NonConjugatedSingleBond NonConjugatedSingleBond NonConjugatedSingleBond ConjugatedDoubleBond ConjugatedSingleBond ConjugatedSingleBond ConjugatedSingleBond ConjugatedSingleBond ConjugatedSingleBond ConjugatedDoubleBond ConjugatedSingleBond ConjugatedSingleBond ConjugatedDoubleBond ConjugatedDoubleBond NonConjugatedSingleBond
M  BCL CHI   2   R   7   R  13   S  17   S  35   R
M  BCL DBI - - - - - - - -
M  END
> <ConfClashScore>
0 

> <ConfOneFourInteractionScore>
-0.981576 

> <ConfScore>
-0.204696 

> <ConfScorePBest>
0.00737347 

> <ConfTolerance>
1.35662 

$$$$
ChEBI.****
  PyMOL2.5          3D                             0

 43 45  0  0  0  0  0  0  0  0999 V2000
    1.0596    0.7811    7.1021 N   0  0  0  1  0  0  0  0  0  0  0  0
    0.4666    0.6040    5.7762 C   0  0  0  1  0  0  0  0  0  0  0  0
    0.6094    1.4938    5.1993 H   0  0  0  1  0  0  0  0  0  0  0  0
    0.8452    1.8188    7.9721 C   0  0  0  1  0  0  0  0  0  0  0  0
    1.9381   -0.0492    7.7279 C   0  0  0  1  0  0  0  0  0  0  0  0
    2.2877   -0.9256    7.2905 H   0  0  0  1  0  0  0  0  0  0  0  0
   -1.0242    0.2732    5.8939 C   0  0  0  1  0  0  0  0  0  0  0  0
   -1.2500   -0.1448    6.8526 H   0  0  0  1  0  0  0  0  0  0  0  0
    1.0527   -0.5347    5.1061 O   0  0  0  1  0  0  0  0  0  0  0  0
    1.6268    1.5306    9.0990 C   0  0  0  1  0  0  0  0  0  0  0  0
    0.0517    2.8772    7.8020 N   0  0  0  1  0  0  0  0  0  0  0  0
    2.3086    0.3373    8.9183 N   0  0  0  1  0  0  0  0  0  0  0  0
   -1.2382   -0.7389    4.7992 C   0  0  0  1  0  0  0  0  0  0  0  0
   -1.4195   -0.2590    3.8602 H   0  0  0  1  0  0  0  0  0  0  0  0
   -1.8255    1.4362    5.6801 O   0  0  0  1  0  0  0  0  0  0  0  0
   -2.3697    1.3113    4.8992 H   0  0  0  1  0  0  0  0  0  0  0  0
    0.0931   -1.5038    4.7821 C   0  0  0  1  0  0  0  0  0  0  0  0
    0.2818   -1.9146    3.8123 H   0  0  0  1  0  0  0  0  0  0  0  0
    1.5511    2.4579   10.1341 C   0  0  0  1  0  0  0  0  0  0  0  0
    0.0823    3.6792    8.8593 C   0  0  0  1  0  0  0  0  0  0  0  0
   -0.5114    4.5306    8.7953 H   0  0  0  1  0  0  0  0  0  0  0  0
   -2.3401   -1.6186    5.1116 O   0  0  0  1  0  0  0  0  0  0  0  0
    0.0860   -2.6007    5.7954 C   0  0  0  1  0  0  0  0  0  0  0  0
    1.0252   -3.1133    5.7841 H   0  0  0  1  0  0  0  0  0  0  0  0
   -0.7009   -3.2924    5.5781 H   0  0  0  1  0  0  0  0  0  0  0  0
    0.7761    3.5395   10.0000 N   0  0  0  1  0  0  0  0  0  0  0  0
    2.1806    2.2926   11.3679 N   0  0  0  1  0  0  0  0  0  0  0  0
    2.0872    2.9787   12.0614 H   0  0  0  1  0  0  0  0  0  0  0  0
    2.7161    1.4904   11.5412 H   0  0  0  1  0  0  0  0  0  0  0  0
   -3.4018   -2.1610    3.9855 P   0  0  0  1  0  0  0  0  0  0  0  0
   -0.1313   -1.9987    7.0931 O   0  0  0  1  0  0  0  0  0  0  0  0
   -4.1747   -3.2770    4.5752 O   0  0  0  1  0  0  0  0  0  0  0  0
   -2.6780   -2.3981    2.5557 O   0  5  0  1  0  0  0  0  0  0  0  0
   -4.4080   -0.9130    3.7524 O   0  5  0  1  0  0  0  0  0  0  0  0
    0.1490   -2.7148    8.3936 P   0  0  0  1  0  0  0  0  0  0  0  0
   -0.2147   -1.6600    9.6442 O   0  0  0  1  0  0  0  0  0  0  0  0
    1.6371   -2.9386    8.6114 O   0  0  0  0  0  0  0  0  0  0  0  0
   -0.6880   -3.9477    8.6257 O   0  0  0  1  0  0  0  0  0  0  0  0
    0.3327   -1.2999   11.0938 S   0  0  0  1  0  0  0  0  0  0  0  0
    1.6983   -1.2330   10.7132 O   0  0  0  1  0  0  0  0  0  0  0  0
    2.2428   -1.1088   11.4940 H   0  0  0  1  0  0  0  0  0  0  0  0
   -0.2484   -0.0604   11.4606 O   0  0  0  1  0  0  0  0  0  0  0  0
    0.0465   -2.3637   11.9842 O   0  0  0  1  0  0  0  0  0  0  0  0
  1  2  1  0  0  0  0
  1  4  1  0  0  0  0
  1  5  1  0  0  0  0
  2  3  1  0  0  0  0
  2  7  1  0  0  0  0
  2  9  1  0  0  0  0
  4 10  2  0  0  0  0
  4 11  1  0  0  0  0
  5  6  1  0  0  0  0
  5 12  2  0  0  0  0
  7  8  1  0  0  0  0
  7 13  1  0  0  0  0
  7 15  1  0  0  0  0
  9 17  1  0  0  0  0
 10 12  1  0  0  0  0
 10 19  1  0  0  0  0
 11 20  2  0  0  0  0
 13 14  1  0  0  0  0
 13 17  1  0  0  0  0
 13 22  1  0  0  0  0
 15 16  1  0  0  0  0
 17 18  1  0  0  0  0
 17 23  1  0  0  0  0
 19 26  2  0  0  0  0
 19 27  1  0  0  0  0
 20 21  1  0  0  0  0
 20 26  1  0  0  0  0
 22 30  1  0  0  0  0
 23 24  1  0  0  0  0
 23 25  1  0  0  0  0
 23 31  1  0  0  0  0
 27 28  1  0  0  0  0
 27 29  1  0  0  0  0
 30 32  2  0  0  0  0
 30 33  1  0  0  0  0
 30 34  1  0  0  0  0
 31 35  1  0  0  0  0
 35 36  1  0  0  0  0
 35 37  1  0  0  0  0
 35 38  2  0  0  0  0
 36 39  1  0  0  0  0
 39 40  1  0  0  0  0
 39 42  2  0  0  0  0
 39 43  2  0  0  0  0
 40 41  1  0  0  0  0
M  BCL ATM N_TrTrTrPi2 C_TeTeTeTe H_S C_TrTrTrPi C_TrTrTrPi H_S C_TeTeTeTe H_S O_Te2Te2TeTe C_TrTrTrPi N_Tr2TrTrPi N_Tr2TrTrPi C_TeTeTeTe H_S O_Te2Te2TeTe H_S C_TeTeTeTe H_S C_TrTrTrPi C_TrTrTrPi H_S O_Tr2TrTrPi2 C_TeTeTeTe H_S H_S N_Tr2TrTrPi N_TrTrTrPi2 H_S H_S P_TeTeTeTePi O_Tr2TrTrPi2 O_Tr2Tr2TrPi O_Te2Te2Te2Te O_Te2Te2Te2Te P_TeTeTeTePi O_Tr2TrTrPi2 O_Te2Te2TeTe O_Tr2Tr2TrPi S_TeTeTeTePiPi O_Te2Te2TeTe H_S O_Tr2Tr2TrPi O_Tr2Tr2TrPi
M  BCL BND NonConjugatedSingleBond AromaticSingleBond AromaticSingleBond NonConjugatedSingleBond NonConjugatedSingleBondInRing NonConjugatedSingleBondInRing AromaticDoubleBond AromaticSingleBond NonConjugatedSingleBond AromaticDoubleBond NonConjugatedSingleBond NonConjugatedSingleBondInRing NonConjugatedSingleBond NonConjugatedSingleBondInRing AromaticSingleBond AromaticSingleBond AromaticDoubleBond NonConjugatedSingleBond NonConjugatedSingleBondInRing NonConjugatedSingleBond NonConjugatedSingleBond NonConjugatedSingleBond NonConjugatedSingleBond AromaticDoubleBond ConjugatedSingleBond NonConjugatedSingleBond AromaticSingleBond ConjugatedSingleBond NonConjugatedSingleBond NonConjugatedSingleBond NonConjugatedSingleBond NonConjugatedSingleBond NonConjugatedSingleBond ConjugatedDoubleBond ConjugatedSingleBond ConjugatedSingleBond ConjugatedSingleBond ConjugatedSingleBond ConjugatedSingleBond ConjugatedDoubleBond ConjugatedSingleBond ConjugatedSingleBond ConjugatedDoubleBond ConjugatedDoubleBond NonConjugatedSingleBond
M  BCL CHI   2   R   7   R  13   S  17   S  35   R
M  BCL DBI - - - - - - - -
M  END
> <ConfClashScore>
0 

> <ConfOneFourInteractionScore>
-0.987405 

> <ConfScore>
-0.197747 

> <ConfScorePBest>
0.00727047 

> <ConfTolerance>
1.16807 

$$$$
ChEBI.****
  PyMOL2.5          3D                             0

 43 45  0  0  0  0  0  0  0  0999 V2000
    1.0660    0.7861    7.1178 N   0  0  0  1  0  0  0  0  0  0  0  0
    0.4926    0.6118    5.7629 C   0  0  0  1  0  0  0  0  0  0  0  0
   -0.0721   -0.2963    5.7281 H   0  0  0  1  0  0  0  0  0  0  0  0
    0.8455    1.8278    7.9814 C   0  0  0  1  0  0  0  0  0  0  0  0
    1.9204   -0.0539    7.7637 C   0  0  0  1  0  0  0  0  0  0  0  0
    2.2687   -0.9352    7.3353 H   0  0  0  1  0  0  0  0  0  0  0  0
    1.6107    0.5865    4.7086 C   0  0  0  1  0  0  0  0  0  0  0  0
    2.5053    0.1535    5.1049 H   0  0  0  1  0  0  0  0  0  0  0  0
   -0.3192    1.7022    5.4344 O   0  0  0  1  0  0  0  0  0  0  0  0
    1.5989    1.5321    9.1254 C   0  0  0  1  0  0  0  0  0  0  0  0
    0.0689    2.8956    7.7926 N   0  0  0  1  0  0  0  0  0  0  0  0
    2.2697    0.3301    8.9614 N   0  0  0  1  0  0  0  0  0  0  0  0
    1.8064    2.0600    4.3976 C   0  0  0  1  0  0  0  0  0  0  0  0
    2.1324    2.2007    3.3882 H   0  0  0  1  0  0  0  0  0  0  0  0
    1.2058   -0.1364    3.5452 O   0  0  0  1  0  0  0  0  0  0  0  0
    0.6581    0.4261    2.9928 H   0  0  0  1  0  0  0  0  0  0  0  0
    0.3896    2.6471    4.6130 C   0  0  0  1  0  0  0  0  0  0  0  0
   -0.1081    2.7673    3.6734 H   0  0  0  1  0  0  0  0  0  0  0  0
    1.5121    2.4619   10.1573 C   0  0  0  1  0  0  0  0  0  0  0  0
    0.0864    3.6989    8.8491 C   0  0  0  1  0  0  0  0  0  0  0  0
   -0.4953    4.5575    8.7710 H   0  0  0  1  0  0  0  0  0  0  0  0
    2.7561    2.6569    5.2962 O   0  0  0  1  0  0  0  0  0  0  0  0
    0.4772    3.9683    5.3033 C   0  0  0  1  0  0  0  0  0  0  0  0
    0.8879    4.6999    4.6392 H   0  0  0  1  0  0  0  0  0  0  0  0
    1.0976    3.8856    6.1712 H   0  0  0  1  0  0  0  0  0  0  0  0
    0.7535    3.5528   10.0048 N   0  0  0  1  0  0  0  0  0  0  0  0
    2.1964    2.2713   11.3288 N   0  0  0  1  0  0  0  0  0  0  0  0
    2.7618    1.4790   11.4426 H   0  0  0  1  0  0  0  0  0  0  0  0
    2.1205    2.9273   12.0529 H   0  0  0  1  0  0  0  0  0  0  0  0
    4.1872    3.3258    4.8556 P   0  0  0  1  0  0  0  0  0  0  0  0
   -0.8633    4.3516    5.6905 O   0  0  0  1  0  0  0  0  0  0  0  0
    4.9659    2.4970    3.9084 O   0  0  0  1  0  0  0  0  0  0  0  0
    4.9841    3.6223    6.2345 O   0  5  0  1  0  0  0  0  0  0  0  0
    3.7059    4.7968    4.3772 O   0  5  0  1  0  0  0  0  0  0  0  0
   -1.1413    5.8635    6.0640 P   0  0  0  1  0  0  0  0  0  0  0  0
   -2.4663    5.7353    7.0823 O   0  0  0  1  0  0  0  0  0  0  0  0
   -1.5752    6.6134    4.8334 O   0  0  0  0  0  0  0  0  0  0  0  0
    0.0743    6.3443    6.7732 O   0  0  0  1  0  0  0  0  0  0  0  0
   -4.0602    5.7499    6.9763 S   0  0  0  1  0  0  0  0  0  0  0  0
   -4.5644    5.3939    8.2881 O   0  0  0  1  0  0  0  0  0  0  0  0
   -4.5746    6.1725    8.8496 H   0  0  0  1  0  0  0  0  0  0  0  0
   -4.4324    7.0936    6.5996 O   0  0  0  1  0  0  0  0  0  0  0  0
   -4.2991    4.7564    5.9667 O   0  0  0  1  0  0  0  0  0  0  0  0
  1  2  1  0  0  0  0
  1  4  1  0  0  0  0
  1  5  1  0  0  0  0
  2  3  1  0  0  0  0
  2  7  1  0  0  0  0
  2  9  1  0  0  0  0
  4 10  2  0  0  0  0
  4 11  1  0  0  0  0
  5  6  1  0  0  0  0
  5 12  2  0  0  0  0
  7  8  1  0  0  0  0
  7 13  1  0  0  0  0
  7 15  1  0  0  0  0
  9 17  1  0  0  0  0
 10 12  1  0  0  0  0
 10 19  1  0  0  0  0
 11 20  2  0  0  0  0
 13 14  1  0  0  0  0
 13 17  1  0  0  0  0
 13 22  1  0  0  0  0
 15 16  1  0  0  0  0
 17 18  1  0  0  0  0
 17 23  1  0  0  0  0
 19 26  2  0  0  0  0
 19 27  1  0  0  0  0
 20 21  1  0  0  0  0
 20 26  1  0  0  0  0
 22 30  1  0  0  0  0
 23 24  1  0  0  0  0
 23 25  1  0  0  0  0
 23 31  1  0  0  0  0
 27 28  1  0  0  0  0
 27 29  1  0  0  0  0
 30 32  2  0  0  0  0
 30 33  1  0  0  0  0
 30 34  1  0  0  0  0
 31 35  1  0  0  0  0
 35 36  1  0  0  0  0
 35 37  1  0  0  0  0
 35 38  2  0  0  0  0
 36 39  1  0  0  0  0
 39 40  1  0  0  0  0
 39 42  2  0  0  0  0
 39 43  2  0  0  0  0
 40 41  1  0  0  0  0
M  BCL ATM N_TrTrTrPi2 C_TeTeTeTe H_S C_TrTrTrPi C_TrTrTrPi H_S C_TeTeTeTe H_S O_Te2Te2TeTe C_TrTrTrPi N_Tr2TrTrPi N_Tr2TrTrPi C_TeTeTeTe H_S O_Te2Te2TeTe H_S C_TeTeTeTe H_S C_TrTrTrPi C_TrTrTrPi H_S O_Tr2TrTrPi2 C_TeTeTeTe H_S H_S N_Tr2TrTrPi N_TrTrTrPi2 H_S H_S P_TeTeTeTePi O_Tr2TrTrPi2 O_Tr2Tr2TrPi O_Te2Te2Te2Te O_Te2Te2Te2Te P_TeTeTeTePi O_Tr2TrTrPi2 O_Te2Te2TeTe O_Tr2Tr2TrPi S_TeTeTeTePiPi O_Te2Te2TeTe H_S O_Tr2Tr2TrPi O_Tr2Tr2TrPi
M  BCL BND NonConjugatedSingleBond AromaticSingleBond AromaticSingleBond NonConjugatedSingleBond NonConjugatedSingleBondInRing NonConjugatedSingleBondInRing AromaticDoubleBond AromaticSingleBond NonConjugatedSingleBond AromaticDoubleBond NonConjugatedSingleBond NonConjugatedSingleBondInRing NonConjugatedSingleBond NonConjugatedSingleBondInRing AromaticSingleBond AromaticSingleBond AromaticDoubleBond NonConjugatedSingleBond NonConjugatedSingleBondInRing NonConjugatedSingleBond NonConjugatedSingleBond NonConjugatedSingleBond NonConjugatedSingleBond AromaticDoubleBond ConjugatedSingleBond NonConjugatedSingleBond AromaticSingleBond ConjugatedSingleBond NonConjugatedSingleBond NonConjugatedSingleBond NonConjugatedSingleBond NonConjugatedSingleBond NonConjugatedSingleBond ConjugatedDoubleBond ConjugatedSingleBond ConjugatedSingleBond ConjugatedSingleBond ConjugatedSingleBond ConjugatedSingleBond ConjugatedDoubleBond ConjugatedSingleBond ConjugatedSingleBond ConjugatedDoubleBond ConjugatedDoubleBond NonConjugatedSingleBond
M  BCL CHI   2   R   7   R  13   S  17   S  35   R
M  BCL DBI - - - - - - - -
M  END
> <ConfClashScore>
0 

> <ConfOneFourInteractionScore>
-0.981777 

> <ConfScore>
-0.197033 

> <ConfScorePBest>
0.00716747 

> <ConfTolerance>
1.20931 

$$$$
ChEBI.****
  PyMOL2.5          3D                             0

 43 45  0  0  0  0  0  0  0  0999 V2000
    1.0866    0.8072    7.0648 N   0  0  0  1  0  0  0  0  0  0  0  0
    0.3497    0.5512    5.8297 C   0  0  0  1  0  0  0  0  0  0  0  0
   -0.6538    0.9082    5.9321 H   0  0  0  1  0  0  0  0  0  0  0  0
    0.8730    1.8295    7.9530 C   0  0  0  1  0  0  0  0  0  0  0  0
    1.9310   -0.0563    7.6926 C   0  0  0  1  0  0  0  0  0  0  0  0
    2.2725   -0.9301    7.2438 H   0  0  0  1  0  0  0  0  0  0  0  0
    0.3572   -0.9443    5.4993 C   0  0  0  1  0  0  0  0  0  0  0  0
    1.1838   -1.4366    5.9676 H   0  0  0  1  0  0  0  0  0  0  0  0
    1.0026    1.1875    4.7081 O   0  0  0  1  0  0  0  0  0  0  0  0
    1.6197    1.4988    9.0918 C   0  0  0  1  0  0  0  0  0  0  0  0
    0.1069    2.9088    7.7880 N   0  0  0  1  0  0  0  0  0  0  0  0
    2.2798    0.2950    8.9004 N   0  0  0  1  0  0  0  0  0  0  0  0
    0.4961   -0.9633    3.9997 C   0  0  0  1  0  0  0  0  0  0  0  0
   -0.4565   -0.8634    3.5228 H   0  0  0  1  0  0  0  0  0  0  0  0
   -0.8620   -1.5656    5.9089 O   0  0  0  1  0  0  0  0  0  0  0  0
   -1.5980   -0.9755    5.7308 H   0  0  0  1  0  0  0  0  0  0  0  0
    1.3825    0.2606    3.7275 C   0  0  0  1  0  0  0  0  0  0  0  0
    1.2009    0.6498    2.7475 H   0  0  0  1  0  0  0  0  0  0  0  0
    1.5381    2.4039   10.1458 C   0  0  0  1  0  0  0  0  0  0  0  0
    0.1284    3.6858    8.8639 C   0  0  0  1  0  0  0  0  0  0  0  0
   -0.4450    4.5515    8.8051 H   0  0  0  1  0  0  0  0  0  0  0  0
    1.1367   -2.1828    3.5498 O   0  0  0  1  0  0  0  0  0  0  0  0
    2.8273   -0.0918    3.8641 C   0  0  0  1  0  0  0  0  0  0  0  0
    3.1342   -0.6978    3.0375 H   0  0  0  1  0  0  0  0  0  0  0  0
    2.9873   -0.6258    4.7774 H   0  0  0  1  0  0  0  0  0  0  0  0
    0.7902    3.5052   10.0177 N   0  0  0  1  0  0  0  0  0  0  0  0
    2.1653    2.3177   11.3922 N   0  0  0  1  0  0  0  0  0  0  0  0
    2.7777    1.5766   11.5824 H   0  0  0  1  0  0  0  0  0  0  0  0
    1.9925    2.9983   12.0758 H   0  0  0  1  0  0  0  0  0  0  0  0
    0.3847   -3.6324    3.7003 P   0  0  0  1  0  0  0  0  0  0  0  0
    3.5814    1.1431    3.8766 O   0  0  0  1  0  0  0  0  0  0  0  0
   -0.8756   -3.4052    4.4422 O   0  0  0  1  0  0  0  0  0  0  0  0
    1.3562   -4.7313    4.3881 O   0  5  0  1  0  0  0  0  0  0  0  0
    0.0953   -4.2148    2.2166 O   0  5  0  1  0  0  0  0  0  0  0  0
    5.1344    1.1374    4.1300 P   0  0  0  1  0  0  0  0  0  0  0  0
    5.7817    0.0680    3.0969 O   0  0  0  1  0  0  0  0  0  0  0  0
    5.3197    0.6473    5.5319 O   0  0  0  0  0  0  0  0  0  0  0  0
    5.7446    2.4462    3.8315 O   0  0  0  1  0  0  0  0  0  0  0  0
    7.0538   -0.8537    3.4162 S   0  0  0  1  0  0  0  0  0  0  0  0
    8.0169   -0.6184    2.3588 O   0  0  0  1  0  0  0  0  0  0  0  0
    7.5612   -0.5702    1.5152 H   0  0  0  1  0  0  0  0  0  0  0  0
    7.4655   -0.3182    4.6903 O   0  0  0  1  0  0  0  0  0  0  0  0
    6.5926   -2.2101    3.4509 O   0  0  0  1  0  0  0  0  0  0  0  0
  1  2  1  0  0  0  0
  1  4  1  0  0  0  0
  1  5  1  0  0  0  0
  2  3  1  0  0  0  0
  2  7  1  0  0  0  0
  2  9  1  0  0  0  0
  4 10  2  0  0  0  0
  4 11  1  0  0  0  0
  5  6  1  0  0  0  0
  5 12  2  0  0  0  0
  7  8  1  0  0  0  0
  7 13  1  0  0  0  0
  7 15  1  0  0  0  0
  9 17  1  0  0  0  0
 10 12  1  0  0  0  0
 10 19  1  0  0  0  0
 11 20  2  0  0  0  0
 13 14  1  0  0  0  0
 13 17  1  0  0  0  0
 13 22  1  0  0  0  0
 15 16  1  0  0  0  0
 17 18  1  0  0  0  0
 17 23  1  0  0  0  0
 19 26  2  0  0  0  0
 19 27  1  0  0  0  0
 20 21  1  0  0  0  0
 20 26  1  0  0  0  0
 22 30  1  0  0  0  0
 23 24  1  0  0  0  0
 23 25  1  0  0  0  0
 23 31  1  0  0  0  0
 27 28  1  0  0  0  0
 27 29  1  0  0  0  0
 30 32  2  0  0  0  0
 30 33  1  0  0  0  0
 30 34  1  0  0  0  0
 31 35  1  0  0  0  0
 35 36  1  0  0  0  0
 35 37  1  0  0  0  0
 35 38  2  0  0  0  0
 36 39  1  0  0  0  0
 39 40  1  0  0  0  0
 39 42  2  0  0  0  0
 39 43  2  0  0  0  0
 40 41  1  0  0  0  0
M  BCL ATM N_TrTrTrPi2 C_TeTeTeTe H_S C_TrTrTrPi C_TrTrTrPi H_S C_TeTeTeTe H_S O_Te2Te2TeTe C_TrTrTrPi N_Tr2TrTrPi N_Tr2TrTrPi C_TeTeTeTe H_S O_Te2Te2TeTe H_S C_TeTeTeTe H_S C_TrTrTrPi C_TrTrTrPi H_S O_Tr2TrTrPi2 C_TeTeTeTe H_S H_S N_Tr2TrTrPi N_TrTrTrPi2 H_S H_S P_TeTeTeTePi O_Tr2TrTrPi2 O_Tr2Tr2TrPi O_Te2Te2Te2Te O_Te2Te2Te2Te P_TeTeTeTePi O_Tr2TrTrPi2 O_Te2Te2TeTe O_Tr2Tr2TrPi S_TeTeTeTePiPi O_Te2Te2TeTe H_S O_Tr2Tr2TrPi O_Tr2Tr2TrPi
M  BCL BND NonConjugatedSingleBond AromaticSingleBond AromaticSingleBond NonConjugatedSingleBond NonConjugatedSingleBondInRing NonConjugatedSingleBondInRing AromaticDoubleBond AromaticSingleBond NonConjugatedSingleBond AromaticDoubleBond NonConjugatedSingleBond NonConjugatedSingleBondInRing NonConjugatedSingleBond NonConjugatedSingleBondInRing AromaticSingleBond AromaticSingleBond AromaticDoubleBond NonConjugatedSingleBond NonConjugatedSingleBondInRing NonConjugatedSingleBond NonConjugatedSingleBond NonConjugatedSingleBond NonConjugatedSingleBond AromaticDoubleBond ConjugatedSingleBond NonConjugatedSingleBond AromaticSingleBond ConjugatedSingleBond NonConjugatedSingleBond NonConjugatedSingleBond NonConjugatedSingleBond NonConjugatedSingleBond NonConjugatedSingleBond ConjugatedDoubleBond ConjugatedSingleBond ConjugatedSingleBond ConjugatedSingleBond ConjugatedSingleBond ConjugatedSingleBond ConjugatedDoubleBond ConjugatedSingleBond ConjugatedSingleBond ConjugatedDoubleBond ConjugatedDoubleBond NonConjugatedSingleBond
M  BCL CHI   2   R   7   R  13   S  17   S  35   R
M  BCL DBI - - - - - - - -
M  END
> <ConfClashScore>
0 

> <ConfOneFourInteractionScore>
-0.968756 

> <ConfScore>
-0.194505 

> <ConfScorePBest>
0.00706447 

> <ConfTolerance>
1.35773 

$$$$
ChEBI.****
  PyMOL2.5          3D                             0

 43 45  0  0  0  0  0  0  0  0999 V2000
    1.0695    0.7877    7.0865 N   0  0  0  1  0  0  0  0  0  0  0  0
    0.5056    0.6346    5.7768 C   0  0  0  1  0  0  0  0  0  0  0  0
    1.2069    0.9750    5.0439 H   0  0  0  1  0  0  0  0  0  0  0  0
    0.8466    1.8138    7.9681 C   0  0  0  1  0  0  0  0  0  0  0  0
    1.9364   -0.0545    7.7125 C   0  0  0  1  0  0  0  0  0  0  0  0
    2.2891   -0.9258    7.2676 H   0  0  0  1  0  0  0  0  0  0  0  0
   -0.8097    1.4111    5.6636 C   0  0  0  1  0  0  0  0  0  0  0  0
   -1.2449    1.5714    6.6279 H   0  0  0  1  0  0  0  0  0  0  0  0
    0.1496   -0.7454    5.5358 O   0  0  0  1  0  0  0  0  0  0  0  0
    1.6116    1.5069    9.1015 C   0  0  0  1  0  0  0  0  0  0  0  0
    0.0590    2.8773    7.8022 N   0  0  0  1  0  0  0  0  0  0  0  0
    2.2918    0.3138    8.9133 N   0  0  0  1  0  0  0  0  0  0  0  0
   -1.6722    0.5041    4.8257 C   0  0  0  1  0  0  0  0  0  0  0  0
   -1.4928    0.6571    3.7820 H   0  0  0  1  0  0  0  0  0  0  0  0
   -0.6084    2.6683    5.0164 O   0  0  0  1  0  0  0  0  0  0  0  0
   -1.3806    3.2234    5.1472 H   0  0  0  1  0  0  0  0  0  0  0  0
   -1.2179   -0.8950    5.2662 C   0  0  0  1  0  0  0  0  0  0  0  0
   -1.3742   -1.6080    4.4839 H   0  0  0  1  0  0  0  0  0  0  0  0
    1.5247    2.4197   10.1485 C   0  0  0  1  0  0  0  0  0  0  0  0
    0.0777    3.6641    8.8711 C   0  0  0  1  0  0  0  0  0  0  0  0
   -0.5122    4.5185    8.8110 H   0  0  0  1  0  0  0  0  0  0  0  0
   -3.0777    0.7105    5.1101 O   0  0  0  1  0  0  0  0  0  0  0  0
   -1.9541   -1.3290    6.4908 C   0  0  0  1  0  0  0  0  0  0  0  0
   -1.5274   -2.2335    6.8711 H   0  0  0  1  0  0  0  0  0  0  0  0
   -2.9857   -1.4913    6.2575 H   0  0  0  1  0  0  0  0  0  0  0  0
    0.7552    3.5059   10.0191 N   0  0  0  1  0  0  0  0  0  0  0  0
    2.1825    2.3176   11.3695 N   0  0  0  1  0  0  0  0  0  0  0  0
    1.9895    2.9586   12.0852 H   0  0  0  1  0  0  0  0  0  0  0  0
    2.8392    1.6047   11.5142 H   0  0  0  1  0  0  0  0  0  0  0  0
   -4.2299    0.2356    4.0440 P   0  0  0  1  0  0  0  0  0  0  0  0
   -1.8313   -0.2746    7.4742 O   0  0  0  1  0  0  0  0  0  0  0  0
   -4.1079    0.2877    2.5700 O   0  0  0  1  0  0  0  0  0  0  0  0
   -5.5018    1.1776    4.3895 O   0  5  0  1  0  0  0  0  0  0  0  0
   -4.8214   -1.1996    4.5073 O   0  5  0  1  0  0  0  0  0  0  0  0
   -1.9779   -0.5831    9.0102 P   0  0  0  1  0  0  0  0  0  0  0  0
   -3.5976   -0.9962    9.1320 O   0  0  0  1  0  0  0  0  0  0  0  0
   -1.7628    0.6804    9.7991 O   0  0  0  0  0  0  0  0  0  0  0  0
   -1.0827   -1.7258    9.2869 O   0  0  0  1  0  0  0  0  0  0  0  0
   -4.7025   -1.2470   10.2949 S   0  0  0  1  0  0  0  0  0  0  0  0
   -5.9473   -1.4732    9.5882 O   0  0  0  1  0  0  0  0  0  0  0  0
   -6.0634   -0.7950    8.9187 H   0  0  0  1  0  0  0  0  0  0  0  0
   -4.2305   -2.4129   11.0100 O   0  0  0  1  0  0  0  0  0  0  0  0
   -4.6422   -0.0165   11.0367 O   0  0  0  1  0  0  0  0  0  0  0  0
  1  2  1  0  0  0  0
  1  4  1  0  0  0  0
  1  5  1  0  0  0  0
  2  3  1  0  0  0  0
  2  7  1  0  0  0  0
  2  9  1  0  0  0  0
  4 10  2  0  0  0  0
  4 11  1  0  0  0  0
  5  6  1  0  0  0  0
  5 12  2  0  0  0  0
  7  8  1  0  0  0  0
  7 13  1  0  0  0  0
  7 15  1  0  0  0  0
  9 17  1  0  0  0  0
 10 12  1  0  0  0  0
 10 19  1  0  0  0  0
 11 20  2  0  0  0  0
 13 14  1  0  0  0  0
 13 17  1  0  0  0  0
 13 22  1  0  0  0  0
 15 16  1  0  0  0  0
 17 18  1  0  0  0  0
 17 23  1  0  0  0  0
 19 26  2  0  0  0  0
 19 27  1  0  0  0  0
 20 21  1  0  0  0  0
 20 26  1  0  0  0  0
 22 30  1  0  0  0  0
 23 24  1  0  0  0  0
 23 25  1  0  0  0  0
 23 31  1  0  0  0  0
 27 28  1  0  0  0  0
 27 29  1  0  0  0  0
 30 32  2  0  0  0  0
 30 33  1  0  0  0  0
 30 34  1  0  0  0  0
 31 35  1  0  0  0  0
 35 36  1  0  0  0  0
 35 37  1  0  0  0  0
 35 38  2  0  0  0  0
 36 39  1  0  0  0  0
 39 40  1  0  0  0  0
 39 42  2  0  0  0  0
 39 43  2  0  0  0  0
 40 41  1  0  0  0  0
M  BCL ATM N_TrTrTrPi2 C_TeTeTeTe H_S C_TrTrTrPi C_TrTrTrPi H_S C_TeTeTeTe H_S O_Te2Te2TeTe C_TrTrTrPi N_Tr2TrTrPi N_Tr2TrTrPi C_TeTeTeTe H_S O_Te2Te2TeTe H_S C_TeTeTeTe H_S C_TrTrTrPi C_TrTrTrPi H_S O_Tr2TrTrPi2 C_TeTeTeTe H_S H_S N_Tr2TrTrPi N_TrTrTrPi2 H_S H_S P_TeTeTeTePi O_Tr2TrTrPi2 O_Tr2Tr2TrPi O_Te2Te2Te2Te O_Te2Te2Te2Te P_TeTeTeTePi O_Tr2TrTrPi2 O_Te2Te2TeTe O_Tr2Tr2TrPi S_TeTeTeTePiPi O_Te2Te2TeTe H_S O_Tr2Tr2TrPi O_Tr2Tr2TrPi
M  BCL BND NonConjugatedSingleBond AromaticSingleBond AromaticSingleBond NonConjugatedSingleBond NonConjugatedSingleBondInRing NonConjugatedSingleBondInRing AromaticDoubleBond AromaticSingleBond NonConjugatedSingleBond AromaticDoubleBond NonConjugatedSingleBond NonConjugatedSingleBondInRing NonConjugatedSingleBond NonConjugatedSingleBondInRing AromaticSingleBond AromaticSingleBond AromaticDoubleBond NonConjugatedSingleBond NonConjugatedSingleBondInRing NonConjugatedSingleBond NonConjugatedSingleBond NonConjugatedSingleBond NonConjugatedSingleBond AromaticDoubleBond ConjugatedSingleBond NonConjugatedSingleBond AromaticSingleBond ConjugatedSingleBond NonConjugatedSingleBond NonConjugatedSingleBond NonConjugatedSingleBond NonConjugatedSingleBond NonConjugatedSingleBond ConjugatedDoubleBond ConjugatedSingleBond ConjugatedSingleBond ConjugatedSingleBond ConjugatedSingleBond ConjugatedSingleBond ConjugatedDoubleBond ConjugatedSingleBond ConjugatedSingleBond ConjugatedDoubleBond ConjugatedDoubleBond NonConjugatedSingleBond
M  BCL CHI   2   R   7   R  13   S  17   S  35   R
M  BCL DBI - - - - - - - -
M  END
> <ConfClashScore>
0 

> <ConfOneFourInteractionScore>
-0.981372 

> <ConfScore>
-0.19444 

> <ConfScorePBest>
0.00696147 

> <ConfTolerance>
1.20138 

$$$$
ChEBI.****
  PyMOL2.5          3D                             0

 43 45  0  0  0  0  0  0  0  0999 V2000
    1.0721    0.7884    7.1040 N   0  0  0  1  0  0  0  0  0  0  0  0
    0.4968    0.6225    5.7548 C   0  0  0  1  0  0  0  0  0  0  0  0
    0.8789    1.3839    5.1074 H   0  0  0  1  0  0  0  0  0  0  0  0
    0.8473    1.8209    7.9776 C   0  0  0  1  0  0  0  0  0  0  0  0
    1.9353   -0.0507    7.7391 C   0  0  0  1  0  0  0  0  0  0  0  0
    2.2885   -0.9256    7.3016 H   0  0  0  1  0  0  0  0  0  0  0  0
   -1.0373    0.6930    5.8156 C   0  0  0  1  0  0  0  0  0  0  0  0
   -1.3630    1.3522    6.5929 H   0  0  0  1  0  0  0  0  0  0  0  0
    0.8024   -0.6448    5.2484 O   0  0  0  1  0  0  0  0  0  0  0  0
    1.6073    1.5207    9.1161 C   0  0  0  1  0  0  0  0  0  0  0  0
    0.0619    2.8844    7.8013 N   0  0  0  1  0  0  0  0  0  0  0  0
    2.2865    0.3253    8.9387 N   0  0  0  1  0  0  0  0  0  0  0  0
   -1.4234   -0.7441    6.1182 C   0  0  0  1  0  0  0  0  0  0  0  0
   -2.3798   -0.9820    5.7016 H   0  0  0  1  0  0  0  0  0  0  0  0
   -1.5834    1.1214    4.5672 O   0  0  0  1  0  0  0  0  0  0  0  0
   -2.2913    0.5277    4.3065 H   0  0  0  1  0  0  0  0  0  0  0  0
   -0.2977   -1.5542    5.4291 C   0  0  0  1  0  0  0  0  0  0  0  0
   -0.6331   -1.9223    4.4820 H   0  0  0  1  0  0  0  0  0  0  0  0
    1.5177    2.4407   10.1565 C   0  0  0  1  0  0  0  0  0  0  0  0
    0.0776    3.6785    8.8648 C   0  0  0  1  0  0  0  0  0  0  0  0
   -0.5108    4.5333    8.7966 H   0  0  0  1  0  0  0  0  0  0  0  0
   -1.4435   -0.9898    7.5494 O   0  0  0  1  0  0  0  0  0  0  0  0
    0.1160   -2.7009    6.2916 C   0  0  0  1  0  0  0  0  0  0  0  0
    0.9262   -3.2281    5.8328 H   0  0  0  1  0  0  0  0  0  0  0  0
   -0.7093   -3.3671    6.4327 H   0  0  0  1  0  0  0  0  0  0  0  0
    0.7504    3.5271   10.0166 N   0  0  0  1  0  0  0  0  0  0  0  0
    2.1859    2.2942   11.3434 N   0  0  0  1  0  0  0  0  0  0  0  0
    2.0968    2.9745   12.0432 H   0  0  0  1  0  0  0  0  0  0  0  0
    2.7531    1.5090   11.4928 H   0  0  0  1  0  0  0  0  0  0  0  0
   -2.8074   -1.5152    8.2932 P   0  0  0  1  0  0  0  0  0  0  0  0
    0.5378   -2.1619    7.5665 O   0  0  0  1  0  0  0  0  0  0  0  0
   -3.2291   -2.8153    7.7253 O   0  0  0  1  0  0  0  0  0  0  0  0
   -4.0137   -0.4371    8.2101 O   0  5  0  1  0  0  0  0  0  0  0  0
   -2.2813   -1.6467    9.8197 O   0  5  0  1  0  0  0  0  0  0  0  0
    1.2666   -2.9782    8.6082 P   0  0  0  1  0  0  0  0  0  0  0  0
    2.7900   -3.3304    8.0048 O   0  0  0  1  0  0  0  0  0  0  0  0
    0.6731   -4.3700    8.7590 O   0  0  0  0  0  0  0  0  0  0  0  0
    1.4872   -2.2696    9.9211 O   0  0  0  1  0  0  0  0  0  0  0  0
    4.3350   -3.4216    8.5503 S   0  0  0  1  0  0  0  0  0  0  0  0
    4.0938   -4.2460    9.7116 O   0  0  0  1  0  0  0  0  0  0  0  0
    4.8875   -4.2803   10.2506 H   0  0  0  1  0  0  0  0  0  0  0  0
    5.1226   -4.0506    7.5330 O   0  0  0  1  0  0  0  0  0  0  0  0
    4.7258   -2.0927    8.8785 O   0  0  0  1  0  0  0  0  0  0  0  0
  1  2  1  0  0  0  0
  1  4  1  0  0  0  0
  1  5  1  0  0  0  0
  2  3  1  0  0  0  0
  2  7  1  0  0  0  0
  2  9  1  0  0  0  0
  4 10  2  0  0  0  0
  4 11  1  0  0  0  0
  5  6  1  0  0  0  0
  5 12  2  0  0  0  0
  7  8  1  0  0  0  0
  7 13  1  0  0  0  0
  7 15  1  0  0  0  0
  9 17  1  0  0  0  0
 10 12  1  0  0  0  0
 10 19  1  0  0  0  0
 11 20  2  0  0  0  0
 13 14  1  0  0  0  0
 13 17  1  0  0  0  0
 13 22  1  0  0  0  0
 15 16  1  0  0  0  0
 17 18  1  0  0  0  0
 17 23  1  0  0  0  0
 19 26  2  0  0  0  0
 19 27  1  0  0  0  0
 20 21  1  0  0  0  0
 20 26  1  0  0  0  0
 22 30  1  0  0  0  0
 23 24  1  0  0  0  0
 23 25  1  0  0  0  0
 23 31  1  0  0  0  0
 27 28  1  0  0  0  0
 27 29  1  0  0  0  0
 30 32  2  0  0  0  0
 30 33  1  0  0  0  0
 30 34  1  0  0  0  0
 31 35  1  0  0  0  0
 35 36  1  0  0  0  0
 35 37  1  0  0  0  0
 35 38  2  0  0  0  0
 36 39  1  0  0  0  0
 39 40  1  0  0  0  0
 39 42  2  0  0  0  0
 39 43  2  0  0  0  0
 40 41  1  0  0  0  0
M  BCL ATM N_TrTrTrPi2 C_TeTeTeTe H_S C_TrTrTrPi C_TrTrTrPi H_S C_TeTeTeTe H_S O_Te2Te2TeTe C_TrTrTrPi N_Tr2TrTrPi N_Tr2TrTrPi C_TeTeTeTe H_S O_Te2Te2TeTe H_S C_TeTeTeTe H_S C_TrTrTrPi C_TrTrTrPi H_S O_Tr2TrTrPi2 C_TeTeTeTe H_S H_S N_Tr2TrTrPi N_TrTrTrPi2 H_S H_S P_TeTeTeTePi O_Tr2TrTrPi2 O_Tr2Tr2TrPi O_Te2Te2Te2Te O_Te2Te2Te2Te P_TeTeTeTePi O_Tr2TrTrPi2 O_Te2Te2TeTe O_Tr2Tr2TrPi S_TeTeTeTePiPi O_Te2Te2TeTe H_S O_Tr2Tr2TrPi O_Tr2Tr2TrPi
M  BCL BND NonConjugatedSingleBond AromaticSingleBond AromaticSingleBond NonConjugatedSingleBond NonConjugatedSingleBondInRing NonConjugatedSingleBondInRing AromaticDoubleBond AromaticSingleBond NonConjugatedSingleBond AromaticDoubleBond NonConjugatedSingleBond NonConjugatedSingleBondInRing NonConjugatedSingleBond NonConjugatedSingleBondInRing AromaticSingleBond AromaticSingleBond AromaticDoubleBond NonConjugatedSingleBond NonConjugatedSingleBondInRing NonConjugatedSingleBond NonConjugatedSingleBond NonConjugatedSingleBond NonConjugatedSingleBond AromaticDoubleBond ConjugatedSingleBond NonConjugatedSingleBond AromaticSingleBond ConjugatedSingleBond NonConjugatedSingleBond NonConjugatedSingleBond NonConjugatedSingleBond NonConjugatedSingleBond NonConjugatedSingleBond ConjugatedDoubleBond ConjugatedSingleBond ConjugatedSingleBond ConjugatedSingleBond ConjugatedSingleBond ConjugatedSingleBond ConjugatedDoubleBond ConjugatedSingleBond ConjugatedSingleBond ConjugatedDoubleBond ConjugatedDoubleBond NonConjugatedSingleBond
M  BCL CHI   2   R   7   R  13   S  17   S  35   R
M  BCL DBI - - - - - - - -
M  END
> <ConfClashScore>
0.00075208 

> <ConfOneFourInteractionScore>
-0.989267 

> <ConfScore>
-0.190707 

> <ConfScorePBest>
0.00685847 

> <ConfTolerance>
1.17667 

$$$$
ChEBI.****
  PyMOL2.5          3D                             0

 43 45  0  0  0  0  0  0  0  0999 V2000
    1.0805    0.7946    7.0841 N   0  0  0  1  0  0  0  0  0  0  0  0
    0.4333    0.5852    5.7741 C   0  0  0  1  0  0  0  0  0  0  0  0
    1.1314    0.8006    4.9923 H   0  0  0  1  0  0  0  0  0  0  0  0
    0.8585    1.8214    7.9651 C   0  0  0  1  0  0  0  0  0  0  0  0
    1.9383   -0.0535    7.7148 C   0  0  0  1  0  0  0  0  0  0  0  0
    2.2883   -0.9267    7.2714 H   0  0  0  1  0  0  0  0  0  0  0  0
   -0.8105    1.4631    5.6419 C   0  0  0  1  0  0  0  0  0  0  0  0
   -1.2817    1.6179    6.5900 H   0  0  0  1  0  0  0  0  0  0  0  0
   -0.0602   -0.7772    5.6588 O   0  0  0  1  0  0  0  0  0  0  0  0
    1.6145    1.5089    9.1029 C   0  0  0  1  0  0  0  0  0  0  0  0
    0.0786    2.8899    7.7951 N   0  0  0  1  0  0  0  0  0  0  0  0
    2.2884    0.3118    8.9181 N   0  0  0  1  0  0  0  0  0  0  0  0
   -1.6726    0.6302    4.7288 C   0  0  0  1  0  0  0  0  0  0  0  0
   -1.3768    0.7438    3.7068 H   0  0  0  1  0  0  0  0  0  0  0  0
   -0.4967    2.7263    5.0536 O   0  0  0  1  0  0  0  0  0  0  0  0
    0.4365    2.9145    5.1773 H   0  0  0  1  0  0  0  0  0  0  0  0
   -1.4040   -0.7790    5.2249 C   0  0  0  1  0  0  0  0  0  0  0  0
   -1.5402   -1.4862    4.4335 H   0  0  0  1  0  0  0  0  0  0  0  0
    1.5269    2.4215   10.1501 C   0  0  0  1  0  0  0  0  0  0  0  0
    0.0956    3.6758    8.8647 C   0  0  0  1  0  0  0  0  0  0  0  0
   -0.4886    4.5339    8.8016 H   0  0  0  1  0  0  0  0  0  0  0  0
   -3.0745    0.9778    4.8688 O   0  0  0  1  0  0  0  0  0  0  0  0
   -2.3172   -1.1163    6.3574 C   0  0  0  1  0  0  0  0  0  0  0  0
   -1.9928   -2.0195    6.8304 H   0  0  0  1  0  0  0  0  0  0  0  0
   -3.3161   -1.2416    5.9950 H   0  0  0  1  0  0  0  0  0  0  0  0
    0.7650    3.5125   10.0167 N   0  0  0  1  0  0  0  0  0  0  0  0
    2.1764    2.3144   11.3751 N   0  0  0  1  0  0  0  0  0  0  0  0
    2.1162    3.0436   12.0270 H   0  0  0  1  0  0  0  0  0  0  0  0
    2.6943    1.5098   11.5864 H   0  0  0  1  0  0  0  0  0  0  0  0
   -4.1525    0.6162    3.6869 P   0  0  0  1  0  0  0  0  0  0  0  0
   -2.2693   -0.0207    7.3017 O   0  0  0  1  0  0  0  0  0  0  0  0
   -3.5552    1.0311    2.3980 O   0  0  0  1  0  0  0  0  0  0  0  0
   -5.4998    1.4554    4.0110 O   0  5  0  1  0  0  0  0  0  0  0  0
   -4.4158   -0.9805    3.7626 O   0  5  0  1  0  0  0  0  0  0  0  0
   -3.0315   -0.1061    8.6757 P   0  0  0  1  0  0  0  0  0  0  0  0
   -2.2977   -1.4040    9.4411 O   0  0  0  1  0  0  0  0  0  0  0  0
   -4.4028   -0.5551    8.3292 O   0  0  0  0  0  0  0  0  0  0  0  0
   -2.8492    1.1266    9.4573 O   0  0  0  1  0  0  0  0  0  0  0  0
   -1.3969   -2.6718    9.0525 S   0  0  0  1  0  0  0  0  0  0  0  0
   -0.2716   -2.1683    8.2968 O   0  0  0  1  0  0  0  0  0  0  0  0
    0.1764   -1.4876    8.8043 H   0  0  0  1  0  0  0  0  0  0  0  0
   -1.0339   -3.1559   10.3541 O   0  0  0  1  0  0  0  0  0  0  0  0
   -2.2285   -3.5618    8.2830 O   0  0  0  1  0  0  0  0  0  0  0  0
  1  2  1  0  0  0  0
  1  4  1  0  0  0  0
  1  5  1  0  0  0  0
  2  3  1  0  0  0  0
  2  7  1  0  0  0  0
  2  9  1  0  0  0  0
  4 10  2  0  0  0  0
  4 11  1  0  0  0  0
  5  6  1  0  0  0  0
  5 12  2  0  0  0  0
  7  8  1  0  0  0  0
  7 13  1  0  0  0  0
  7 15  1  0  0  0  0
  9 17  1  0  0  0  0
 10 12  1  0  0  0  0
 10 19  1  0  0  0  0
 11 20  2  0  0  0  0
 13 14  1  0  0  0  0
 13 17  1  0  0  0  0
 13 22  1  0  0  0  0
 15 16  1  0  0  0  0
 17 18  1  0  0  0  0
 17 23  1  0  0  0  0
 19 26  2  0  0  0  0
 19 27  1  0  0  0  0
 20 21  1  0  0  0  0
 20 26  1  0  0  0  0
 22 30  1  0  0  0  0
 23 24  1  0  0  0  0
 23 25  1  0  0  0  0
 23 31  1  0  0  0  0
 27 28  1  0  0  0  0
 27 29  1  0  0  0  0
 30 32  2  0  0  0  0
 30 33  1  0  0  0  0
 30 34  1  0  0  0  0
 31 35  1  0  0  0  0
 35 36  1  0  0  0  0
 35 37  1  0  0  0  0
 35 38  2  0  0  0  0
 36 39  1  0  0  0  0
 39 40  1  0  0  0  0
 39 42  2  0  0  0  0
 39 43  2  0  0  0  0
 40 41  1  0  0  0  0
M  BCL ATM N_TrTrTrPi2 C_TeTeTeTe H_S C_TrTrTrPi C_TrTrTrPi H_S C_TeTeTeTe H_S O_Te2Te2TeTe C_TrTrTrPi N_Tr2TrTrPi N_Tr2TrTrPi C_TeTeTeTe H_S O_Te2Te2TeTe H_S C_TeTeTeTe H_S C_TrTrTrPi C_TrTrTrPi H_S O_Tr2TrTrPi2 C_TeTeTeTe H_S H_S N_Tr2TrTrPi N_TrTrTrPi2 H_S H_S P_TeTeTeTePi O_Tr2TrTrPi2 O_Tr2Tr2TrPi O_Te2Te2Te2Te O_Te2Te2Te2Te P_TeTeTeTePi O_Tr2TrTrPi2 O_Te2Te2TeTe O_Tr2Tr2TrPi S_TeTeTeTePiPi O_Te2Te2TeTe H_S O_Tr2Tr2TrPi O_Tr2Tr2TrPi
M  BCL BND NonConjugatedSingleBond AromaticSingleBond AromaticSingleBond NonConjugatedSingleBond NonConjugatedSingleBondInRing NonConjugatedSingleBondInRing AromaticDoubleBond AromaticSingleBond NonConjugatedSingleBond AromaticDoubleBond NonConjugatedSingleBond NonConjugatedSingleBondInRing NonConjugatedSingleBond NonConjugatedSingleBondInRing AromaticSingleBond AromaticSingleBond AromaticDoubleBond NonConjugatedSingleBond NonConjugatedSingleBondInRing NonConjugatedSingleBond NonConjugatedSingleBond NonConjugatedSingleBond NonConjugatedSingleBond AromaticDoubleBond ConjugatedSingleBond NonConjugatedSingleBond AromaticSingleBond ConjugatedSingleBond NonConjugatedSingleBond NonConjugatedSingleBond NonConjugatedSingleBond NonConjugatedSingleBond NonConjugatedSingleBond ConjugatedDoubleBond ConjugatedSingleBond ConjugatedSingleBond ConjugatedSingleBond ConjugatedSingleBond ConjugatedSingleBond ConjugatedDoubleBond ConjugatedSingleBond ConjugatedSingleBond ConjugatedDoubleBond ConjugatedDoubleBond NonConjugatedSingleBond
M  BCL CHI   2   R   7   R  13   S  17   S  35   R
M  BCL DBI - - - - - - - -
M  END
> <ConfClashScore>
0 

> <ConfOneFourInteractionScore>
-0.97951 

> <ConfScore>
-0.190628 

> <ConfScorePBest>
0.00675547 

> <ConfTolerance>
1.44091 

$$$$
ChEBI.****
  PyMOL2.5          3D                             0

 43 45  0  0  0  0  0  0  0  0999 V2000
    1.0429    0.7705    7.1145 N   0  0  0  1  0  0  0  0  0  0  0  0
    0.6028    0.6924    5.7518 C   0  0  0  1  0  0  0  0  0  0  0  0
    0.8074    1.6187    5.2567 H   0  0  0  1  0  0  0  0  0  0  0  0
    0.8280    1.8088    7.9836 C   0  0  0  1  0  0  0  0  0  0  0  0
    1.9109   -0.0659    7.7468 C   0  0  0  1  0  0  0  0  0  0  0  0
    2.2586   -0.9442    7.3116 H   0  0  0  1  0  0  0  0  0  0  0  0
   -0.8601    0.3715    5.6873 C   0  0  0  1  0  0  0  0  0  0  0  0
   -1.1407   -0.3031    6.4690 H   0  0  0  1  0  0  0  0  0  0  0  0
    1.2485   -0.3965    5.0736 O   0  0  0  1  0  0  0  0  0  0  0  0
    1.5983    1.5148    9.1167 C   0  0  0  1  0  0  0  0  0  0  0  0
    0.0426    2.8724    7.8079 N   0  0  0  1  0  0  0  0  0  0  0  0
    2.2740    0.3173    8.9406 N   0  0  0  1  0  0  0  0  0  0  0  0
   -1.0051   -0.2800    4.3277 C   0  0  0  1  0  0  0  0  0  0  0  0
   -1.3373    0.4335    3.6028 H   0  0  0  1  0  0  0  0  0  0  0  0
   -1.6504    1.5581    5.7750 O   0  0  0  1  0  0  0  0  0  0  0  0
   -2.3486    1.5274    5.1168 H   0  0  0  1  0  0  0  0  0  0  0  0
    0.3807   -0.7831    3.9820 C   0  0  0  1  0  0  0  0  0  0  0  0
    0.7169   -0.3384    3.0687 H   0  0  0  1  0  0  0  0  0  0  0  0
    1.5200    2.4417   10.1519 C   0  0  0  1  0  0  0  0  0  0  0  0
    0.0696    3.6733    8.8660 C   0  0  0  1  0  0  0  0  0  0  0  0
   -0.5181    4.5286    8.7979 H   0  0  0  1  0  0  0  0  0  0  0  0
   -1.9312   -1.3644    4.3880 O   0  0  0  1  0  0  0  0  0  0  0  0
    0.3671   -2.2693    3.8373 C   0  0  0  1  0  0  0  0  0  0  0  0
   -0.4142   -2.5631    3.1678 H   0  0  0  1  0  0  0  0  0  0  0  0
    0.2104   -2.7269    4.7918 H   0  0  0  1  0  0  0  0  0  0  0  0
    0.7530    3.5284   10.0123 N   0  0  0  1  0  0  0  0  0  0  0  0
    2.1992    2.3017   11.3334 N   0  0  0  1  0  0  0  0  0  0  0  0
    2.1382    2.9990   12.0193 H   0  0  0  1  0  0  0  0  0  0  0  0
    2.7462    1.5043   11.4927 H   0  0  0  1  0  0  0  0  0  0  0  0
   -3.5046   -1.3396    4.8499 P   0  0  0  1  0  0  0  0  0  0  0  0
    1.6413   -2.6676    3.3071 O   0  0  0  1  0  0  0  0  0  0  0  0
   -3.8477   -0.7284    6.1534 O   0  0  0  1  0  0  0  0  0  0  0  0
   -4.1707   -2.8147    4.7805 O   0  5  0  1  0  0  0  0  0  0  0  0
   -4.3619   -0.4626    3.7915 O   0  5  0  1  0  0  0  0  0  0  0  0
    2.0522   -4.1667    2.9076 P   0  0  0  1  0  0  0  0  0  0  0  0
    2.0311   -4.9161    4.3932 O   0  0  0  1  0  0  0  0  0  0  0  0
    3.4209   -4.1474    2.3361 O   0  0  0  0  0  0  0  0  0  0  0  0
    0.9715   -4.7625    2.1211 O   0  0  0  1  0  0  0  0  0  0  0  0
    1.9080   -4.5182    5.9086 S   0  0  0  1  0  0  0  0  0  0  0  0
    2.8952   -5.3889    6.5119 O   0  0  0  1  0  0  0  0  0  0  0  0
    2.9975   -6.1780    5.9748 H   0  0  0  1  0  0  0  0  0  0  0  0
    2.2510   -3.1263    5.9867 O   0  0  0  1  0  0  0  0  0  0  0  0
    0.5571   -4.8141    6.2896 O   0  0  0  1  0  0  0  0  0  0  0  0
  1  2  1  0  0  0  0
  1  4  1  0  0  0  0
  1  5  1  0  0  0  0
  2  3  1  0  0  0  0
  2  7  1  0  0  0  0
  2  9  1  0  0  0  0
  4 10  2  0  0  0  0
  4 11  1  0  0  0  0
  5  6  1  0  0  0  0
  5 12  2  0  0  0  0
  7  8  1  0  0  0  0
  7 13  1  0  0  0  0
  7 15  1  0  0  0  0
  9 17  1  0  0  0  0
 10 12  1  0  0  0  0
 10 19  1  0  0  0  0
 11 20  2  0  0  0  0
 13 14  1  0  0  0  0
 13 17  1  0  0  0  0
 13 22  1  0  0  0  0
 15 16  1  0  0  0  0
 17 18  1  0  0  0  0
 17 23  1  0  0  0  0
 19 26  2  0  0  0  0
 19 27  1  0  0  0  0
 20 21  1  0  0  0  0
 20 26  1  0  0  0  0
 22 30  1  0  0  0  0
 23 24  1  0  0  0  0
 23 25  1  0  0  0  0
 23 31  1  0  0  0  0
 27 28  1  0  0  0  0
 27 29  1  0  0  0  0
 30 32  2  0  0  0  0
 30 33  1  0  0  0  0
 30 34  1  0  0  0  0
 31 35  1  0  0  0  0
 35 36  1  0  0  0  0
 35 37  1  0  0  0  0
 35 38  2  0  0  0  0
 36 39  1  0  0  0  0
 39 40  1  0  0  0  0
 39 42  2  0  0  0  0
 39 43  2  0  0  0  0
 40 41  1  0  0  0  0
M  BCL ATM N_TrTrTrPi2 C_TeTeTeTe H_S C_TrTrTrPi C_TrTrTrPi H_S C_TeTeTeTe H_S O_Te2Te2TeTe C_TrTrTrPi N_Tr2TrTrPi N_Tr2TrTrPi C_TeTeTeTe H_S O_Te2Te2TeTe H_S C_TeTeTeTe H_S C_TrTrTrPi C_TrTrTrPi H_S O_Tr2TrTrPi2 C_TeTeTeTe H_S H_S N_Tr2TrTrPi N_TrTrTrPi2 H_S H_S P_TeTeTeTePi O_Tr2TrTrPi2 O_Tr2Tr2TrPi O_Te2Te2Te2Te O_Te2Te2Te2Te P_TeTeTeTePi O_Tr2TrTrPi2 O_Te2Te2TeTe O_Tr2Tr2TrPi S_TeTeTeTePiPi O_Te2Te2TeTe H_S O_Tr2Tr2TrPi O_Tr2Tr2TrPi
M  BCL BND NonConjugatedSingleBond AromaticSingleBond AromaticSingleBond NonConjugatedSingleBond NonConjugatedSingleBondInRing NonConjugatedSingleBondInRing AromaticDoubleBond AromaticSingleBond NonConjugatedSingleBond AromaticDoubleBond NonConjugatedSingleBond NonConjugatedSingleBondInRing NonConjugatedSingleBond NonConjugatedSingleBondInRing AromaticSingleBond AromaticSingleBond AromaticDoubleBond NonConjugatedSingleBond NonConjugatedSingleBondInRing NonConjugatedSingleBond NonConjugatedSingleBond NonConjugatedSingleBond NonConjugatedSingleBond AromaticDoubleBond ConjugatedSingleBond NonConjugatedSingleBond AromaticSingleBond ConjugatedSingleBond NonConjugatedSingleBond NonConjugatedSingleBond NonConjugatedSingleBond NonConjugatedSingleBond NonConjugatedSingleBond ConjugatedDoubleBond ConjugatedSingleBond ConjugatedSingleBond ConjugatedSingleBond ConjugatedSingleBond ConjugatedSingleBond ConjugatedDoubleBond ConjugatedSingleBond ConjugatedSingleBond ConjugatedDoubleBond ConjugatedDoubleBond NonConjugatedSingleBond
M  BCL CHI   2   R   7   R  13   S  17   S  35   R
M  BCL DBI - - - - - - - -
M  END
> <ConfClashScore>
0 

> <ConfOneFourInteractionScore>
-0.979765 

> <ConfScore>
-0.187049 

> <ConfScorePBest>
0.00665247 

> <ConfTolerance>
1.49833 

$$$$
ChEBI.****
  PyMOL2.5          3D                             0

 43 45  0  0  0  0  0  0  0  0999 V2000
    1.0725    0.7896    7.1022 N   0  0  0  1  0  0  0  0  0  0  0  0
    0.5081    0.6275    5.7791 C   0  0  0  1  0  0  0  0  0  0  0  0
   -0.0985   -0.2536    5.7551 H   0  0  0  1  0  0  0  0  0  0  0  0
    0.8468    1.8209    7.9770 C   0  0  0  1  0  0  0  0  0  0  0  0
    1.9369   -0.0491    7.7363 C   0  0  0  1  0  0  0  0  0  0  0  0
    2.2910   -0.9232    7.2978 H   0  0  0  1  0  0  0  0  0  0  0  0
    1.6173    0.5532    4.7199 C   0  0  0  1  0  0  0  0  0  0  0  0
    2.4458    1.1764    4.9847 H   0  0  0  1  0  0  0  0  0  0  0  0
   -0.2407    1.7558    5.4170 O   0  0  0  1  0  0  0  0  0  0  0  0
    1.6076    1.5206    9.1149 C   0  0  0  1  0  0  0  0  0  0  0  0
    0.0601    2.8837    7.8019 N   0  0  0  1  0  0  0  0  0  0  0  0
    2.2881    0.3262    8.9361 N   0  0  0  1  0  0  0  0  0  0  0  0
    0.9275    1.0639    3.4822 C   0  0  0  1  0  0  0  0  0  0  0  0
    0.3983    0.2776    2.9857 H   0  0  0  1  0  0  0  0  0  0  0  0
    2.0679   -0.7864    4.5411 O   0  0  0  1  0  0  0  0  0  0  0  0
    1.6411   -1.1679    3.7704 H   0  0  0  1  0  0  0  0  0  0  0  0
   -0.0405    2.1160    4.0316 C   0  0  0  1  0  0  0  0  0  0  0  0
   -0.9678    2.0880    3.4984 H   0  0  0  1  0  0  0  0  0  0  0  0
    1.5172    2.4395   10.1562 C   0  0  0  1  0  0  0  0  0  0  0  0
    0.0752    3.6768    8.8662 C   0  0  0  1  0  0  0  0  0  0  0  0
   -0.5142    4.5310    8.7990 H   0  0  0  1  0  0  0  0  0  0  0  0
    1.8794    1.6613    2.5650 O   0  0  0  1  0  0  0  0  0  0  0  0
    0.5473    3.4655    3.9270 C   0  0  0  1  0  0  0  0  0  0  0  0
    0.6138    3.7418    2.8954 H   0  0  0  1  0  0  0  0  0  0  0  0
    1.5264    3.4577    4.3585 H   0  0  0  1  0  0  0  0  0  0  0  0
    0.7486    3.5251   10.0176 N   0  0  0  1  0  0  0  0  0  0  0  0
    2.1833    2.2932   11.3380 N   0  0  0  1  0  0  0  0  0  0  0  0
    2.0656    2.9542   12.0519 H   0  0  0  1  0  0  0  0  0  0  0  0
    2.7795    1.5272   11.4729 H   0  0  0  1  0  0  0  0  0  0  0  0
    2.1611    0.9946    1.0933 P   0  0  0  1  0  0  0  0  0  0  0  0
   -0.2759    4.4319    4.6281 O   0  0  0  1  0  0  0  0  0  0  0  0
    0.9718    0.7401    0.2501 O   0  0  0  1  0  0  0  0  0  0  0  0
    2.9164   -0.3211    1.6616 O   0  5  0  1  0  0  0  0  0  0  0  0
    3.3285    1.8669    0.3858 O   0  5  0  1  0  0  0  0  0  0  0  0
   -1.1163    5.5310    3.8236 P   0  0  0  1  0  0  0  0  0  0  0  0
   -2.0932    4.6274    2.8969 O   0  0  0  1  0  0  0  0  0  0  0  0
   -0.1990    6.2941    2.9301 O   0  0  0  0  0  0  0  0  0  0  0  0
   -1.9725    6.2359    4.8002 O   0  0  0  1  0  0  0  0  0  0  0  0
   -3.0086    3.3554    3.4480 S   0  0  0  1  0  0  0  0  0  0  0  0
   -4.2086    4.1529    3.8295 O   0  0  0  1  0  0  0  0  0  0  0  0
   -4.2070    4.9841    3.3492 H   0  0  0  1  0  0  0  0  0  0  0  0
   -3.1469    2.4813    2.4356 O   0  0  0  1  0  0  0  0  0  0  0  0
   -2.3642    3.0411    4.6694 O   0  0  0  1  0  0  0  0  0  0  0  0
  1  2  1  0  0  0  0
  1  4  1  0  0  0  0
  1  5  1  0  0  0  0
  2  3  1  0  0  0  0
  2  7  1  0  0  0  0
  2  9  1  0  0  0  0
  4 10  2  0  0  0  0
  4 11  1  0  0  0  0
  5  6  1  0  0  0  0
  5 12  2  0  0  0  0
  7  8  1  0  0  0  0
  7 13  1  0  0  0  0
  7 15  1  0  0  0  0
  9 17  1  0  0  0  0
 10 12  1  0  0  0  0
 10 19  1  0  0  0  0
 11 20  2  0  0  0  0
 13 14  1  0  0  0  0
 13 17  1  0  0  0  0
 13 22  1  0  0  0  0
 15 16  1  0  0  0  0
 17 18  1  0  0  0  0
 17 23  1  0  0  0  0
 19 26  2  0  0  0  0
 19 27  1  0  0  0  0
 20 21  1  0  0  0  0
 20 26  1  0  0  0  0
 22 30  1  0  0  0  0
 23 24  1  0  0  0  0
 23 25  1  0  0  0  0
 23 31  1  0  0  0  0
 27 28  1  0  0  0  0
 27 29  1  0  0  0  0
 30 32  2  0  0  0  0
 30 33  1  0  0  0  0
 30 34  1  0  0  0  0
 31 35  1  0  0  0  0
 35 36  1  0  0  0  0
 35 37  1  0  0  0  0
 35 38  2  0  0  0  0
 36 39  1  0  0  0  0
 39 40  1  0  0  0  0
 39 42  2  0  0  0  0
 39 43  2  0  0  0  0
 40 41  1  0  0  0  0
M  BCL ATM N_TrTrTrPi2 C_TeTeTeTe H_S C_TrTrTrPi C_TrTrTrPi H_S C_TeTeTeTe H_S O_Te2Te2TeTe C_TrTrTrPi N_Tr2TrTrPi N_Tr2TrTrPi C_TeTeTeTe H_S O_Te2Te2TeTe H_S C_TeTeTeTe H_S C_TrTrTrPi C_TrTrTrPi H_S O_Tr2TrTrPi2 C_TeTeTeTe H_S H_S N_Tr2TrTrPi N_TrTrTrPi2 H_S H_S P_TeTeTeTePi O_Tr2TrTrPi2 O_Tr2Tr2TrPi O_Te2Te2Te2Te O_Te2Te2Te2Te P_TeTeTeTePi O_Tr2TrTrPi2 O_Te2Te2TeTe O_Tr2Tr2TrPi S_TeTeTeTePiPi O_Te2Te2TeTe H_S O_Tr2Tr2TrPi O_Tr2Tr2TrPi
M  BCL BND NonConjugatedSingleBond AromaticSingleBond AromaticSingleBond NonConjugatedSingleBond NonConjugatedSingleBondInRing NonConjugatedSingleBondInRing AromaticDoubleBond AromaticSingleBond NonConjugatedSingleBond AromaticDoubleBond NonConjugatedSingleBond NonConjugatedSingleBondInRing NonConjugatedSingleBond NonConjugatedSingleBondInRing AromaticSingleBond AromaticSingleBond AromaticDoubleBond NonConjugatedSingleBond NonConjugatedSingleBondInRing NonConjugatedSingleBond NonConjugatedSingleBond NonConjugatedSingleBond NonConjugatedSingleBond AromaticDoubleBond ConjugatedSingleBond NonConjugatedSingleBond AromaticSingleBond ConjugatedSingleBond NonConjugatedSingleBond NonConjugatedSingleBond NonConjugatedSingleBond NonConjugatedSingleBond NonConjugatedSingleBond ConjugatedDoubleBond ConjugatedSingleBond ConjugatedSingleBond ConjugatedSingleBond ConjugatedSingleBond ConjugatedSingleBond ConjugatedDoubleBond ConjugatedSingleBond ConjugatedSingleBond ConjugatedDoubleBond ConjugatedDoubleBond NonConjugatedSingleBond
M  BCL CHI   2   R   7   R  13   S  17   S  35   R
M  BCL DBI - - - - - - - -
M  END
> <ConfClashScore>
0 

> <ConfOneFourInteractionScore>
-0.983639 

> <ConfScore>
-0.184991 

> <ConfScorePBest>
0.00654947 

> <ConfTolerance>
1.65959 

$$$$
ChEBI.****
  PyMOL2.5          3D                             0

 43 45  0  0  0  0  0  0  0  0999 V2000
    1.0641    0.7867    7.1060 N   0  0  0  1  0  0  0  0  0  0  0  0
    0.4879    0.6226    5.7570 C   0  0  0  1  0  0  0  0  0  0  0  0
    0.7365    1.4727    5.1566 H   0  0  0  1  0  0  0  0  0  0  0  0
    0.8472    1.8225    7.9776 C   0  0  0  1  0  0  0  0  0  0  0  0
    1.9207   -0.0580    7.7429 C   0  0  0  1  0  0  0  0  0  0  0  0
    2.2671   -0.9364    7.3071 H   0  0  0  1  0  0  0  0  0  0  0  0
   -1.0315    0.4482    5.8390 C   0  0  0  1  0  0  0  0  0  0  0  0
   -1.3250    0.0888    6.8031 H   0  0  0  1  0  0  0  0  0  0  0  0
    0.9733   -0.5921    5.1422 O   0  0  0  1  0  0  0  0  0  0  0  0
    1.6046    1.5186    9.1168 C   0  0  0  1  0  0  0  0  0  0  0  0
    0.0702    2.8917    7.7991 N   0  0  0  1  0  0  0  0  0  0  0  0
    2.2745    0.3176    8.9419 N   0  0  0  1  0  0  0  0  0  0  0  0
   -1.3172   -0.5749    4.7711 C   0  0  0  1  0  0  0  0  0  0  0  0
   -1.4227   -0.1123    3.8121 H   0  0  0  1  0  0  0  0  0  0  0  0
   -1.7040    1.6778    5.5634 O   0  0  0  1  0  0  0  0  0  0  0  0
   -2.5276    1.4968    5.1046 H   0  0  0  1  0  0  0  0  0  0  0  0
   -0.0707   -1.4703    4.8198 C   0  0  0  1  0  0  0  0  0  0  0  0
    0.1019   -1.9317    3.8699 H   0  0  0  1  0  0  0  0  0  0  0  0
    1.5219    2.4413   10.1554 C   0  0  0  1  0  0  0  0  0  0  0  0
    0.0918    3.6877    8.8611 C   0  0  0  1  0  0  0  0  0  0  0  0
   -0.4899    4.5470    8.7911 H   0  0  0  1  0  0  0  0  0  0  0  0
   -2.5169   -1.3312    5.0787 O   0  0  0  1  0  0  0  0  0  0  0  0
   -0.2173   -2.5248    5.8669 C   0  0  0  1  0  0  0  0  0  0  0  0
   -1.1387   -3.0507    5.7278 H   0  0  0  1  0  0  0  0  0  0  0  0
   -0.2046   -2.0775    6.8388 H   0  0  0  1  0  0  0  0  0  0  0  0
    0.7631    3.5333   10.0133 N   0  0  0  1  0  0  0  0  0  0  0  0
    2.1887    2.2918   11.3428 N   0  0  0  1  0  0  0  0  0  0  0  0
    2.7066    1.4778   11.5149 H   0  0  0  1  0  0  0  0  0  0  0  0
    2.1478    2.9989   12.0201 H   0  0  0  1  0  0  0  0  0  0  0  0
   -3.5104   -1.8545    3.8835 P   0  0  0  1  0  0  0  0  0  0  0  0
    0.8888   -3.4313    5.7310 O   0  0  0  1  0  0  0  0  0  0  0  0
   -2.5976   -2.2266    2.7795 O   0  0  0  1  0  0  0  0  0  0  0  0
   -4.2428   -0.4720    3.4632 O   0  5  0  1  0  0  0  0  0  0  0  0
   -4.5085   -3.0111    4.4225 O   0  5  0  1  0  0  0  0  0  0  0  0
    0.7936   -4.9307    5.1802 P   0  0  0  1  0  0  0  0  0  0  0  0
    0.3167   -4.7624    3.5823 O   0  0  0  1  0  0  0  0  0  0  0  0
   -0.3218   -5.6595    5.8174 O   0  0  0  0  0  0  0  0  0  0  0  0
    2.1662   -5.4557    5.2602 O   0  0  0  1  0  0  0  0  0  0  0  0
    0.7097   -3.8885    2.3041 S   0  0  0  1  0  0  0  0  0  0  0  0
    1.5831   -2.8331    2.7783 O   0  0  0  1  0  0  0  0  0  0  0  0
    1.2027   -1.9795    2.5588 H   0  0  0  1  0  0  0  0  0  0  0  0
    1.3811   -4.7755    1.3966 O   0  0  0  1  0  0  0  0  0  0  0  0
   -0.5725   -3.4296    1.8538 O   0  0  0  1  0  0  0  0  0  0  0  0
  1  2  1  0  0  0  0
  1  4  1  0  0  0  0
  1  5  1  0  0  0  0
  2  3  1  0  0  0  0
  2  7  1  0  0  0  0
  2  9  1  0  0  0  0
  4 10  2  0  0  0  0
  4 11  1  0  0  0  0
  5  6  1  0  0  0  0
  5 12  2  0  0  0  0
  7  8  1  0  0  0  0
  7 13  1  0  0  0  0
  7 15  1  0  0  0  0
  9 17  1  0  0  0  0
 10 12  1  0  0  0  0
 10 19  1  0  0  0  0
 11 20  2  0  0  0  0
 13 14  1  0  0  0  0
 13 17  1  0  0  0  0
 13 22  1  0  0  0  0
 15 16  1  0  0  0  0
 17 18  1  0  0  0  0
 17 23  1  0  0  0  0
 19 26  2  0  0  0  0
 19 27  1  0  0  0  0
 20 21  1  0  0  0  0
 20 26  1  0  0  0  0
 22 30  1  0  0  0  0
 23 24  1  0  0  0  0
 23 25  1  0  0  0  0
 23 31  1  0  0  0  0
 27 28  1  0  0  0  0
 27 29  1  0  0  0  0
 30 32  2  0  0  0  0
 30 33  1  0  0  0  0
 30 34  1  0  0  0  0
 31 35  1  0  0  0  0
 35 36  1  0  0  0  0
 35 37  1  0  0  0  0
 35 38  2  0  0  0  0
 36 39  1  0  0  0  0
 39 40  1  0  0  0  0
 39 42  2  0  0  0  0
 39 43  2  0  0  0  0
 40 41  1  0  0  0  0
M  BCL ATM N_TrTrTrPi2 C_TeTeTeTe H_S C_TrTrTrPi C_TrTrTrPi H_S C_TeTeTeTe H_S O_Te2Te2TeTe C_TrTrTrPi N_Tr2TrTrPi N_Tr2TrTrPi C_TeTeTeTe H_S O_Te2Te2TeTe H_S C_TeTeTeTe H_S C_TrTrTrPi C_TrTrTrPi H_S O_Tr2TrTrPi2 C_TeTeTeTe H_S H_S N_Tr2TrTrPi N_TrTrTrPi2 H_S H_S P_TeTeTeTePi O_Tr2TrTrPi2 O_Tr2Tr2TrPi O_Te2Te2Te2Te O_Te2Te2Te2Te P_TeTeTeTePi O_Tr2TrTrPi2 O_Te2Te2TeTe O_Tr2Tr2TrPi S_TeTeTeTePiPi O_Te2Te2TeTe H_S O_Tr2Tr2TrPi O_Tr2Tr2TrPi
M  BCL BND NonConjugatedSingleBond AromaticSingleBond AromaticSingleBond NonConjugatedSingleBond NonConjugatedSingleBondInRing NonConjugatedSingleBondInRing AromaticDoubleBond AromaticSingleBond NonConjugatedSingleBond AromaticDoubleBond NonConjugatedSingleBond NonConjugatedSingleBondInRing NonConjugatedSingleBond NonConjugatedSingleBondInRing AromaticSingleBond AromaticSingleBond AromaticDoubleBond NonConjugatedSingleBond NonConjugatedSingleBondInRing NonConjugatedSingleBond NonConjugatedSingleBond NonConjugatedSingleBond NonConjugatedSingleBond AromaticDoubleBond ConjugatedSingleBond NonConjugatedSingleBond AromaticSingleBond ConjugatedSingleBond NonConjugatedSingleBond NonConjugatedSingleBond NonConjugatedSingleBond NonConjugatedSingleBond NonConjugatedSingleBond ConjugatedDoubleBond ConjugatedSingleBond ConjugatedSingleBond ConjugatedSingleBond ConjugatedSingleBond ConjugatedSingleBond ConjugatedDoubleBond ConjugatedSingleBond ConjugatedSingleBond ConjugatedDoubleBond ConjugatedDoubleBond NonConjugatedSingleBond
M  BCL CHI   2   R   7   R  13   S  17   S  35   R
M  BCL DBI - - - - - - - -
M  END
> <ConfClashScore>
0 

> <ConfOneFourInteractionScore>
-0.981627 

> <ConfScore>
-0.183191 

> <ConfScorePBest>
0.00644647 

> <ConfTolerance>
1.38083 

$$$$
ChEBI.****
  PyMOL2.5          3D                             0

 43 45  0  0  0  0  0  0  0  0999 V2000
    1.0682    0.7870    7.1186 N   0  0  0  1  0  0  0  0  0  0  0  0
    0.4913    0.6117    5.7550 C   0  0  0  1  0  0  0  0  0  0  0  0
   -0.5770    0.6108    5.8166 H   0  0  0  1  0  0  0  0  0  0  0  0
    0.8463    1.8278    7.9830 C   0  0  0  1  0  0  0  0  0  0  0  0
    1.9239   -0.0522    7.7638 C   0  0  0  1  0  0  0  0  0  0  0  0
    2.2734   -0.9327    7.3347 H   0  0  0  1  0  0  0  0  0  0  0  0
    0.9799   -0.7130    5.1481 C   0  0  0  1  0  0  0  0  0  0  0  0
    1.3998   -1.3494    5.8989 H   0  0  0  1  0  0  0  0  0  0  0  0
    0.9182    1.6519    4.9212 O   0  0  0  1  0  0  0  0  0  0  0  0
    1.6002    1.5323    9.1267 C   0  0  0  1  0  0  0  0  0  0  0  0
    0.0680    2.8945    7.7950 N   0  0  0  1  0  0  0  0  0  0  0  0
    2.2728    0.3315    8.9617 N   0  0  0  1  0  0  0  0  0  0  0  0
    2.0516   -0.2530    4.1507 C   0  0  0  1  0  0  0  0  0  0  0  0
    2.1002   -0.9133    3.3102 H   0  0  0  1  0  0  0  0  0  0  0  0
   -0.0827   -1.3973    4.4828 O   0  0  0  1  0  0  0  0  0  0  0  0
   -0.1087   -2.3110    4.7761 H   0  0  0  1  0  0  0  0  0  0  0  0
    1.5779    1.1200    3.7322 C   0  0  0  1  0  0  0  0  0  0  0  0
    0.8895    1.0509    2.9159 H   0  0  0  1  0  0  0  0  0  0  0  0
    1.5122    2.4613   10.1592 C   0  0  0  1  0  0  0  0  0  0  0  0
    0.0845    3.6971    8.8521 C   0  0  0  1  0  0  0  0  0  0  0  0
   -0.4985    4.5549    8.7747 H   0  0  0  1  0  0  0  0  0  0  0  0
    3.3516   -0.1809    4.7846 O   0  0  0  1  0  0  0  0  0  0  0  0
    2.7330    1.9808    3.3386 C   0  0  0  1  0  0  0  0  0  0  0  0
    3.3581    2.1624    4.1878 H   0  0  0  1  0  0  0  0  0  0  0  0
    2.3776    2.9126    2.9508 H   0  0  0  1  0  0  0  0  0  0  0  0
    0.7519    3.5511   10.0076 N   0  0  0  1  0  0  0  0  0  0  0  0
    2.1941    2.2716   11.3257 N   0  0  0  1  0  0  0  0  0  0  0  0
    2.7274    1.4597   11.4551 H   0  0  0  1  0  0  0  0  0  0  0  0
    2.1507    2.9474   12.0342 H   0  0  0  1  0  0  0  0  0  0  0  0
    4.5366   -1.1880    4.2638 P   0  0  0  1  0  0  0  0  0  0  0  0
    3.4793    1.2753    2.3192 O   0  0  0  1  0  0  0  0  0  0  0  0
    4.0531   -2.5796    4.1223 O   0  0  0  1  0  0  0  0  0  0  0  0
    5.8109   -1.0324    5.2518 O   0  5  0  1  0  0  0  0  0  0  0  0
    5.0546   -0.6047    2.8440 O   0  5  0  1  0  0  0  0  0  0  0  0
    4.7025    1.9549    1.5994 P   0  0  0  1  0  0  0  0  0  0  0  0
    4.8543    1.2828    0.0716 O   0  0  0  1  0  0  0  0  0  0  0  0
    5.9110    1.5664    2.4478 O   0  0  0  0  0  0  0  0  0  0  0  0
    4.5375    3.4259    1.4202 O   0  0  0  1  0  0  0  0  0  0  0  0
    3.9868    0.4434   -0.9343 S   0  0  0  1  0  0  0  0  0  0  0  0
    2.7971    1.2463   -0.9770 O   0  0  0  1  0  0  0  0  0  0  0  0
    2.7622    1.7233   -1.8094 H   0  0  0  1  0  0  0  0  0  0  0  0
    4.6506    0.4547   -2.1625 O   0  0  0  1  0  0  0  0  0  0  0  0
    3.6958   -0.8238   -0.3960 O   0  0  0  1  0  0  0  0  0  0  0  0
  1  2  1  0  0  0  0
  1  4  1  0  0  0  0
  1  5  1  0  0  0  0
  2  3  1  0  0  0  0
  2  7  1  0  0  0  0
  2  9  1  0  0  0  0
  4 10  2  0  0  0  0
  4 11  1  0  0  0  0
  5  6  1  0  0  0  0
  5 12  2  0  0  0  0
  7  8  1  0  0  0  0
  7 13  1  0  0  0  0
  7 15  1  0  0  0  0
  9 17  1  0  0  0  0
 10 12  1  0  0  0  0
 10 19  1  0  0  0  0
 11 20  2  0  0  0  0
 13 14  1  0  0  0  0
 13 17  1  0  0  0  0
 13 22  1  0  0  0  0
 15 16  1  0  0  0  0
 17 18  1  0  0  0  0
 17 23  1  0  0  0  0
 19 26  2  0  0  0  0
 19 27  1  0  0  0  0
 20 21  1  0  0  0  0
 20 26  1  0  0  0  0
 22 30  1  0  0  0  0
 23 24  1  0  0  0  0
 23 25  1  0  0  0  0
 23 31  1  0  0  0  0
 27 28  1  0  0  0  0
 27 29  1  0  0  0  0
 30 32  2  0  0  0  0
 30 33  1  0  0  0  0
 30 34  1  0  0  0  0
 31 35  1  0  0  0  0
 35 36  1  0  0  0  0
 35 37  1  0  0  0  0
 35 38  2  0  0  0  0
 36 39  1  0  0  0  0
 39 40  1  0  0  0  0
 39 42  2  0  0  0  0
 39 43  2  0  0  0  0
 40 41  1  0  0  0  0
M  BCL ATM N_TrTrTrPi2 C_TeTeTeTe H_S C_TrTrTrPi C_TrTrTrPi H_S C_TeTeTeTe H_S O_Te2Te2TeTe C_TrTrTrPi N_Tr2TrTrPi N_Tr2TrTrPi C_TeTeTeTe H_S O_Te2Te2TeTe H_S C_TeTeTeTe H_S C_TrTrTrPi C_TrTrTrPi H_S O_Tr2TrTrPi2 C_TeTeTeTe H_S H_S N_Tr2TrTrPi N_TrTrTrPi2 H_S H_S P_TeTeTeTePi O_Tr2TrTrPi2 O_Tr2Tr2TrPi O_Te2Te2Te2Te O_Te2Te2Te2Te P_TeTeTeTePi O_Tr2TrTrPi2 O_Te2Te2TeTe O_Tr2Tr2TrPi S_TeTeTeTePiPi O_Te2Te2TeTe H_S O_Tr2Tr2TrPi O_Tr2Tr2TrPi
M  BCL BND NonConjugatedSingleBond AromaticSingleBond AromaticSingleBond NonConjugatedSingleBond NonConjugatedSingleBondInRing NonConjugatedSingleBondInRing AromaticDoubleBond AromaticSingleBond NonConjugatedSingleBond AromaticDoubleBond NonConjugatedSingleBond NonConjugatedSingleBondInRing NonConjugatedSingleBond NonConjugatedSingleBondInRing AromaticSingleBond AromaticSingleBond AromaticDoubleBond NonConjugatedSingleBond NonConjugatedSingleBondInRing NonConjugatedSingleBond NonConjugatedSingleBond NonConjugatedSingleBond NonConjugatedSingleBond AromaticDoubleBond ConjugatedSingleBond NonConjugatedSingleBond AromaticSingleBond ConjugatedSingleBond NonConjugatedSingleBond NonConjugatedSingleBond NonConjugatedSingleBond NonConjugatedSingleBond NonConjugatedSingleBond ConjugatedDoubleBond ConjugatedSingleBond ConjugatedSingleBond ConjugatedSingleBond ConjugatedSingleBond ConjugatedSingleBond ConjugatedDoubleBond ConjugatedSingleBond ConjugatedSingleBond ConjugatedDoubleBond ConjugatedDoubleBond NonConjugatedSingleBond
M  BCL CHI   2   R   7   R  13   S  17   S  35   R
M  BCL DBI - - - - - - - -
M  END
> <ConfClashScore>
0 

> <ConfOneFourInteractionScore>
-0.977702 

> <ConfScore>
-0.181485 

> <ConfScorePBest>
0.00634346 

> <ConfTolerance>
1.39108 

$$$$
ChEBI.****
  PyMOL2.5          3D                             0

 43 45  0  0  0  0  0  0  0  0999 V2000
    1.0822    0.7843    7.1039 N   0  0  0  1  0  0  0  0  0  0  0  0
    0.4736    0.6648    5.7482 C   0  0  0  1  0  0  0  0  0  0  0  0
    0.8073    1.4751    5.1342 H   0  0  0  1  0  0  0  0  0  0  0  0
    0.8507    1.8152    7.9777 C   0  0  0  1  0  0  0  0  0  0  0  0
    1.9496   -0.0500    7.7396 C   0  0  0  1  0  0  0  0  0  0  0  0
    2.3082   -0.9228    7.3021 H   0  0  0  1  0  0  0  0  0  0  0  0
   -1.0590    0.6919    5.8601 C   0  0  0  1  0  0  0  0  0  0  0  0
   -1.3693    1.0507    6.8192 H   0  0  0  1  0  0  0  0  0  0  0  0
    0.8424   -0.5544    5.1676 O   0  0  0  1  0  0  0  0  0  0  0  0
    1.6115    1.5191    9.1167 C   0  0  0  1  0  0  0  0  0  0  0  0
    0.0594    2.8743    7.8009 N   0  0  0  1  0  0  0  0  0  0  0  0
    2.2976    0.3277    8.9396 N   0  0  0  1  0  0  0  0  0  0  0  0
   -1.4378   -0.7833    5.6725 C   0  0  0  1  0  0  0  0  0  0  0  0
   -2.3931   -0.8755    5.1994 H   0  0  0  1  0  0  0  0  0  0  0  0
   -1.6308    1.4990    4.8455 O   0  0  0  1  0  0  0  0  0  0  0  0
   -1.0961    1.4408    4.0503 H   0  0  0  1  0  0  0  0  0  0  0  0
   -0.3402   -1.3189    4.7820 C   0  0  0  1  0  0  0  0  0  0  0  0
   -0.5762   -1.1575    3.7509 H   0  0  0  1  0  0  0  0  0  0  0  0
    1.5157    2.4384   10.1572 C   0  0  0  1  0  0  0  0  0  0  0  0
    0.0697    3.6682    8.8646 C   0  0  0  1  0  0  0  0  0  0  0  0
   -0.5235    4.5196    8.7961 H   0  0  0  1  0  0  0  0  0  0  0  0
   -1.4586   -1.4782    6.9438 O   0  0  0  1  0  0  0  0  0  0  0  0
   -0.1312   -2.7602    5.0197 C   0  0  0  1  0  0  0  0  0  0  0  0
   -1.0428   -3.2853    4.8247 H   0  0  0  1  0  0  0  0  0  0  0  0
    0.1569   -2.9110    6.0391 H   0  0  0  1  0  0  0  0  0  0  0  0
    0.7423    3.5204   10.0169 N   0  0  0  1  0  0  0  0  0  0  0  0
    2.1838    2.2954   11.3447 N   0  0  0  1  0  0  0  0  0  0  0  0
    1.9947    2.9034   12.0896 H   0  0  0  1  0  0  0  0  0  0  0  0
    2.8508    1.5851   11.4492 H   0  0  0  1  0  0  0  0  0  0  0  0
   -1.9783   -0.7853    8.3364 P   0  0  0  1  0  0  0  0  0  0  0  0
    0.9098   -3.2711    4.1487 O   0  0  0  1  0  0  0  0  0  0  0  0
   -1.3073    0.4723    8.7347 O   0  0  0  1  0  0  0  0  0  0  0  0
   -1.8337   -1.9327    9.4708 O   0  5  0  1  0  0  0  0  0  0  0  0
   -3.5512   -0.4096    8.2396 O   0  5  0  1  0  0  0  0  0  0  0  0
    0.5256   -3.6981    2.6881 P   0  0  0  1  0  0  0  0  0  0  0  0
    1.8935   -3.9497    1.8544 O   0  0  0  1  0  0  0  0  0  0  0  0
   -0.2011   -2.4912    2.1159 O   0  0  0  0  0  0  0  0  0  0  0  0
   -0.2642   -4.9616    2.6323 O   0  0  0  1  0  0  0  0  0  0  0  0
    2.3028   -5.3412    1.1716 S   0  0  0  1  0  0  0  0  0  0  0  0
    1.2709   -6.2977    1.5200 O   0  0  0  1  0  0  0  0  0  0  0  0
    1.1804   -6.3378    2.4749 H   0  0  0  1  0  0  0  0  0  0  0  0
    2.2910   -4.9743   -0.2230 O   0  0  0  1  0  0  0  0  0  0  0  0
    3.5886   -5.7027    1.6910 O   0  0  0  1  0  0  0  0  0  0  0  0
  1  2  1  0  0  0  0
  1  4  1  0  0  0  0
  1  5  1  0  0  0  0
  2  3  1  0  0  0  0
  2  7  1  0  0  0  0
  2  9  1  0  0  0  0
  4 10  2  0  0  0  0
  4 11  1  0  0  0  0
  5  6  1  0  0  0  0
  5 12  2  0  0  0  0
  7  8  1  0  0  0  0
  7 13  1  0  0  0  0
  7 15  1  0  0  0  0
  9 17  1  0  0  0  0
 10 12  1  0  0  0  0
 10 19  1  0  0  0  0
 11 20  2  0  0  0  0
 13 14  1  0  0  0  0
 13 17  1  0  0  0  0
 13 22  1  0  0  0  0
 15 16  1  0  0  0  0
 17 18  1  0  0  0  0
 17 23  1  0  0  0  0
 19 26  2  0  0  0  0
 19 27  1  0  0  0  0
 20 21  1  0  0  0  0
 20 26  1  0  0  0  0
 22 30  1  0  0  0  0
 23 24  1  0  0  0  0
 23 25  1  0  0  0  0
 23 31  1  0  0  0  0
 27 28  1  0  0  0  0
 27 29  1  0  0  0  0
 30 32  2  0  0  0  0
 30 33  1  0  0  0  0
 30 34  1  0  0  0  0
 31 35  1  0  0  0  0
 35 36  1  0  0  0  0
 35 37  1  0  0  0  0
 35 38  2  0  0  0  0
 36 39  1  0  0  0  0
 39 40  1  0  0  0  0
 39 42  2  0  0  0  0
 39 43  2  0  0  0  0
 40 41  1  0  0  0  0
M  BCL ATM N_TrTrTrPi2 C_TeTeTeTe H_S C_TrTrTrPi C_TrTrTrPi H_S C_TeTeTeTe H_S O_Te2Te2TeTe C_TrTrTrPi N_Tr2TrTrPi N_Tr2TrTrPi C_TeTeTeTe H_S O_Te2Te2TeTe H_S C_TeTeTeTe H_S C_TrTrTrPi C_TrTrTrPi H_S O_Tr2TrTrPi2 C_TeTeTeTe H_S H_S N_Tr2TrTrPi N_TrTrTrPi2 H_S H_S P_TeTeTeTePi O_Tr2TrTrPi2 O_Tr2Tr2TrPi O_Te2Te2Te2Te O_Te2Te2Te2Te P_TeTeTeTePi O_Tr2TrTrPi2 O_Te2Te2TeTe O_Tr2Tr2TrPi S_TeTeTeTePiPi O_Te2Te2TeTe H_S O_Tr2Tr2TrPi O_Tr2Tr2TrPi
M  BCL BND NonConjugatedSingleBond AromaticSingleBond AromaticSingleBond NonConjugatedSingleBond NonConjugatedSingleBondInRing NonConjugatedSingleBondInRing AromaticDoubleBond AromaticSingleBond NonConjugatedSingleBond AromaticDoubleBond NonConjugatedSingleBond NonConjugatedSingleBondInRing NonConjugatedSingleBond NonConjugatedSingleBondInRing AromaticSingleBond AromaticSingleBond AromaticDoubleBond NonConjugatedSingleBond NonConjugatedSingleBondInRing NonConjugatedSingleBond NonConjugatedSingleBond NonConjugatedSingleBond NonConjugatedSingleBond AromaticDoubleBond ConjugatedSingleBond NonConjugatedSingleBond AromaticSingleBond ConjugatedSingleBond NonConjugatedSingleBond NonConjugatedSingleBond NonConjugatedSingleBond NonConjugatedSingleBond NonConjugatedSingleBond ConjugatedDoubleBond ConjugatedSingleBond ConjugatedSingleBond ConjugatedSingleBond ConjugatedSingleBond ConjugatedSingleBond ConjugatedDoubleBond ConjugatedSingleBond ConjugatedSingleBond ConjugatedDoubleBond ConjugatedDoubleBond NonConjugatedSingleBond
M  BCL CHI   2   R   7   R  13   S  17   S  35   R
M  BCL DBI - - - - - - - -
M  END
> <ConfClashScore>
0 

> <ConfOneFourInteractionScore>
-0.966255 

> <ConfScore>
-0.178641 

> <ConfScorePBest>
0.00624046 

> <ConfTolerance>
1.62443 

$$$$
ChEBI.****
  PyMOL2.5          3D                             0

 43 45  0  0  0  0  0  0  0  0999 V2000
    1.0617    0.7850    7.1076 N   0  0  0  1  0  0  0  0  0  0  0  0
    0.4833    0.6202    5.7537 C   0  0  0  1  0  0  0  0  0  0  0  0
    0.8664    1.3813    5.1065 H   0  0  0  1  0  0  0  0  0  0  0  0
    0.8475    1.8225    7.9779 C   0  0  0  1  0  0  0  0  0  0  0  0
    1.9158   -0.0612    7.7459 C   0  0  0  1  0  0  0  0  0  0  0  0
    2.2599   -0.9412    7.3113 H   0  0  0  1  0  0  0  0  0  0  0  0
   -1.0507    0.6936    5.8154 C   0  0  0  1  0  0  0  0  0  0  0  0
   -1.3747    1.3530    6.5933 H   0  0  0  1  0  0  0  0  0  0  0  0
    0.7862   -0.6473    5.2464 O   0  0  0  1  0  0  0  0  0  0  0  0
    1.6037    1.5179    9.1176 C   0  0  0  1  0  0  0  0  0  0  0  0
    0.0735    2.8937    7.7978 N   0  0  0  1  0  0  0  0  0  0  0  0
    2.2703    0.3149    8.9445 N   0  0  0  1  0  0  0  0  0  0  0  0
   -1.4393   -0.7430    6.1175 C   0  0  0  1  0  0  0  0  0  0  0  0
   -2.3964   -0.9789    5.7013 H   0  0  0  1  0  0  0  0  0  0  0  0
   -1.5967    1.1236    4.5676 O   0  0  0  1  0  0  0  0  0  0  0  0
   -2.1564    1.8905    4.7100 H   0  0  0  1  0  0  0  0  0  0  0  0
   -0.3155   -1.5547    5.4272 C   0  0  0  1  0  0  0  0  0  0  0  0
   -0.6521   -1.9218    4.4802 H   0  0  0  1  0  0  0  0  0  0  0  0
    1.5234    2.4422   10.1551 C   0  0  0  1  0  0  0  0  0  0  0  0
    0.0970    3.6910    8.8588 C   0  0  0  1  0  0  0  0  0  0  0  0
   -0.4822    4.5518    8.7875 H   0  0  0  1  0  0  0  0  0  0  0  0
   -1.4589   -0.9889    7.5454 O   0  0  0  1  0  0  0  0  0  0  0  0
    0.0966   -2.7027    6.2889 C   0  0  0  1  0  0  0  0  0  0  0  0
   -0.6995   -3.4147    6.3527 H   0  0  0  1  0  0  0  0  0  0  0  0
    0.3420   -2.3524    7.2697 H   0  0  0  1  0  0  0  0  0  0  0  0
    0.7676    3.5362   10.0113 N   0  0  0  1  0  0  0  0  0  0  0  0
    2.1895    2.2924   11.3428 N   0  0  0  1  0  0  0  0  0  0  0  0
    2.7675    1.5140   11.4857 H   0  0  0  1  0  0  0  0  0  0  0  0
    2.0879    2.9636   12.0496 H   0  0  0  1  0  0  0  0  0  0  0  0
   -2.5607   -0.3155    8.5565 P   0  0  0  1  0  0  0  0  0  0  0  0
    1.2576   -3.3148    5.6795 O   0  0  0  1  0  0  0  0  0  0  0  0
   -3.8889   -0.1197    7.9336 O   0  0  0  1  0  0  0  0  0  0  0  0
   -1.9721    1.1103    9.0514 O   0  5  0  1  0  0  0  0  0  0  0  0
   -2.5960   -1.0786    9.9850 O   0  5  0  1  0  0  0  0  0  0  0  0
    1.6656   -4.7220    6.0351 P   0  0  0  1  0  0  0  0  0  0  0  0
    1.8812   -4.8575    7.6366 O   0  0  0  1  0  0  0  0  0  0  0  0
    3.0473   -5.0937    5.4113 O   0  0  0  0  0  0  0  0  0  0  0  0
    0.6557   -5.7730    5.6757 O   0  0  0  1  0  0  0  0  0  0  0  0
    1.0304   -5.7715    8.5732 S   0  0  0  1  0  0  0  0  0  0  0  0
    1.0080   -7.0852    7.9881 O   0  0  0  1  0  0  0  0  0  0  0  0
    1.0587   -7.7462    8.6824 H   0  0  0  1  0  0  0  0  0  0  0  0
    1.6501   -5.8330    9.8577 O   0  0  0  1  0  0  0  0  0  0  0  0
   -0.2490   -5.1478    8.5559 O   0  0  0  1  0  0  0  0  0  0  0  0
  1  2  1  0  0  0  0
  1  4  1  0  0  0  0
  1  5  1  0  0  0  0
  2  3  1  0  0  0  0
  2  7  1  0  0  0  0
  2  9  1  0  0  0  0
  4 10  2  0  0  0  0
  4 11  1  0  0  0  0
  5  6  1  0  0  0  0
  5 12  2  0  0  0  0
  7  8  1  0  0  0  0
  7 13  1  0  0  0  0
  7 15  1  0  0  0  0
  9 17  1  0  0  0  0
 10 12  1  0  0  0  0
 10 19  1  0  0  0  0
 11 20  2  0  0  0  0
 13 14  1  0  0  0  0
 13 17  1  0  0  0  0
 13 22  1  0  0  0  0
 15 16  1  0  0  0  0
 17 18  1  0  0  0  0
 17 23  1  0  0  0  0
 19 26  2  0  0  0  0
 19 27  1  0  0  0  0
 20 21  1  0  0  0  0
 20 26  1  0  0  0  0
 22 30  1  0  0  0  0
 23 24  1  0  0  0  0
 23 25  1  0  0  0  0
 23 31  1  0  0  0  0
 27 28  1  0  0  0  0
 27 29  1  0  0  0  0
 30 32  2  0  0  0  0
 30 33  1  0  0  0  0
 30 34  1  0  0  0  0
 31 35  1  0  0  0  0
 35 36  1  0  0  0  0
 35 37  1  0  0  0  0
 35 38  2  0  0  0  0
 36 39  1  0  0  0  0
 39 40  1  0  0  0  0
 39 42  2  0  0  0  0
 39 43  2  0  0  0  0
 40 41  1  0  0  0  0
M  BCL ATM N_TrTrTrPi2 C_TeTeTeTe H_S C_TrTrTrPi C_TrTrTrPi H_S C_TeTeTeTe H_S O_Te2Te2TeTe C_TrTrTrPi N_Tr2TrTrPi N_Tr2TrTrPi C_TeTeTeTe H_S O_Te2Te2TeTe H_S C_TeTeTeTe H_S C_TrTrTrPi C_TrTrTrPi H_S O_Tr2TrTrPi2 C_TeTeTeTe H_S H_S N_Tr2TrTrPi N_TrTrTrPi2 H_S H_S P_TeTeTeTePi O_Tr2TrTrPi2 O_Tr2Tr2TrPi O_Te2Te2Te2Te O_Te2Te2Te2Te P_TeTeTeTePi O_Tr2TrTrPi2 O_Te2Te2TeTe O_Tr2Tr2TrPi S_TeTeTeTePiPi O_Te2Te2TeTe H_S O_Tr2Tr2TrPi O_Tr2Tr2TrPi
M  BCL BND NonConjugatedSingleBond AromaticSingleBond AromaticSingleBond NonConjugatedSingleBond NonConjugatedSingleBondInRing NonConjugatedSingleBondInRing AromaticDoubleBond AromaticSingleBond NonConjugatedSingleBond AromaticDoubleBond NonConjugatedSingleBond NonConjugatedSingleBondInRing NonConjugatedSingleBond NonConjugatedSingleBondInRing AromaticSingleBond AromaticSingleBond AromaticDoubleBond NonConjugatedSingleBond NonConjugatedSingleBondInRing NonConjugatedSingleBond NonConjugatedSingleBond NonConjugatedSingleBond NonConjugatedSingleBond AromaticDoubleBond ConjugatedSingleBond NonConjugatedSingleBond AromaticSingleBond ConjugatedSingleBond NonConjugatedSingleBond NonConjugatedSingleBond NonConjugatedSingleBond NonConjugatedSingleBond NonConjugatedSingleBond ConjugatedDoubleBond ConjugatedSingleBond ConjugatedSingleBond ConjugatedSingleBond ConjugatedSingleBond ConjugatedSingleBond ConjugatedDoubleBond ConjugatedSingleBond ConjugatedSingleBond ConjugatedDoubleBond ConjugatedDoubleBond NonConjugatedSingleBond
M  BCL CHI   2   R   7   R  13   S  17   S  35   R
M  BCL DBI - - - - - - - -
M  END
> <ConfClashScore>
0 

> <ConfOneFourInteractionScore>
-0.985501 

> <ConfScore>
-0.177607 

> <ConfScorePBest>
0.00613746 

> <ConfTolerance>
1.35954 

$$$$
ChEBI.****
  PyMOL2.5          3D                             0

 43 45  0  0  0  0  0  0  0  0999 V2000
    1.0583    0.7857    7.0911 N   0  0  0  1  0  0  0  0  0  0  0  0
    0.4818    0.6328    5.7549 C   0  0  0  1  0  0  0  0  0  0  0  0
    0.6926    1.5055    5.1729 H   0  0  0  1  0  0  0  0  0  0  0  0
    0.8473    1.8167    7.9698 C   0  0  0  1  0  0  0  0  0  0  0  0
    1.9149   -0.0651    7.7197 C   0  0  0  1  0  0  0  0  0  0  0  0
    2.2574   -0.9418    7.2773 H   0  0  0  1  0  0  0  0  0  0  0  0
   -1.0163    0.4059    5.8467 C   0  0  0  1  0  0  0  0  0  0  0  0
   -1.2705   -0.1507    6.7244 H   0  0  0  1  0  0  0  0  0  0  0  0
    1.0003   -0.5186    5.1229 O   0  0  0  1  0  0  0  0  0  0  0  0
    1.6080    1.5038    9.1044 C   0  0  0  1  0  0  0  0  0  0  0  0
    0.0725    2.8891    7.8006 N   0  0  0  1  0  0  0  0  0  0  0  0
    2.2740    0.3022    8.9197 N   0  0  0  1  0  0  0  0  0  0  0  0
   -1.2993   -0.3872    4.5969 C   0  0  0  1  0  0  0  0  0  0  0  0
   -1.3642    0.2476    3.7380 H   0  0  0  1  0  0  0  0  0  0  0  0
   -1.7276    1.6445    5.8450 O   0  0  0  1  0  0  0  0  0  0  0  0
   -2.6719    1.4718    5.8325 H   0  0  0  1  0  0  0  0  0  0  0  0
   -0.0733   -1.2966    4.5269 C   0  0  0  1  0  0  0  0  0  0  0  0
    0.1573   -1.5407    3.5110 H   0  0  0  1  0  0  0  0  0  0  0  0
    1.5316    2.4203   10.1489 C   0  0  0  1  0  0  0  0  0  0  0  0
    0.1001    3.6785    8.8674 C   0  0  0  1  0  0  0  0  0  0  0  0
   -0.4796    4.5397    8.8048 H   0  0  0  1  0  0  0  0  0  0  0  0
   -2.5195   -1.1547    4.7236 O   0  0  0  1  0  0  0  0  0  0  0  0
   -0.3023   -2.5375    5.2919 C   0  0  0  1  0  0  0  0  0  0  0  0
   -1.2443   -2.9579    5.0075 H   0  0  0  1  0  0  0  0  0  0  0  0
   -0.3138   -2.3099    6.3373 H   0  0  0  1  0  0  0  0  0  0  0  0
    0.7751    3.5153   10.0162 N   0  0  0  1  0  0  0  0  0  0  0  0
    2.1875    2.3137   11.3705 N   0  0  0  1  0  0  0  0  0  0  0  0
    2.7062    1.5089   11.5795 H   0  0  0  1  0  0  0  0  0  0  0  0
    2.1311    3.0433   12.0223 H   0  0  0  1  0  0  0  0  0  0  0  0
   -3.1786   -1.9065    3.4237 P   0  0  0  1  0  0  0  0  0  0  0  0
    0.7476   -3.4967    5.0245 O   0  0  0  1  0  0  0  0  0  0  0  0
   -3.2827   -1.0613    2.2132 O   0  0  0  1  0  0  0  0  0  0  0  0
   -4.6557   -2.3837    3.8873 O   0  5  0  1  0  0  0  0  0  0  0  0
   -2.4314   -3.3047    3.0904 O   0  5  0  1  0  0  0  0  0  0  0  0
    0.6322   -5.0015    5.5427 P   0  0  0  1  0  0  0  0  0  0  0  0
   -0.6528   -5.4618    4.6525 O   0  0  0  1  0  0  0  0  0  0  0  0
    0.2964   -5.0472    6.9961 O   0  0  0  0  0  0  0  0  0  0  0  0
    1.7400   -5.7232    4.9938 O   0  0  0  1  0  0  0  0  0  0  0  0
   -2.0592   -5.9387    5.2584 S   0  0  0  1  0  0  0  0  0  0  0  0
   -3.0646   -5.0937    4.6458 O   0  0  0  1  0  0  0  0  0  0  0  0
   -3.5872   -4.6696    5.3304 H   0  0  0  1  0  0  0  0  0  0  0  0
   -2.1038   -7.3147    4.8523 O   0  0  0  1  0  0  0  0  0  0  0  0
   -1.9699   -5.7393    6.6798 O   0  0  0  1  0  0  0  0  0  0  0  0
  1  2  1  0  0  0  0
  1  4  1  0  0  0  0
  1  5  1  0  0  0  0
  2  3  1  0  0  0  0
  2  7  1  0  0  0  0
  2  9  1  0  0  0  0
  4 10  2  0  0  0  0
  4 11  1  0  0  0  0
  5  6  1  0  0  0  0
  5 12  2  0  0  0  0
  7  8  1  0  0  0  0
  7 13  1  0  0  0  0
  7 15  1  0  0  0  0
  9 17  1  0  0  0  0
 10 12  1  0  0  0  0
 10 19  1  0  0  0  0
 11 20  2  0  0  0  0
 13 14  1  0  0  0  0
 13 17  1  0  0  0  0
 13 22  1  0  0  0  0
 15 16  1  0  0  0  0
 17 18  1  0  0  0  0
 17 23  1  0  0  0  0
 19 26  2  0  0  0  0
 19 27  1  0  0  0  0
 20 21  1  0  0  0  0
 20 26  1  0  0  0  0
 22 30  1  0  0  0  0
 23 24  1  0  0  0  0
 23 25  1  0  0  0  0
 23 31  1  0  0  0  0
 27 28  1  0  0  0  0
 27 29  1  0  0  0  0
 30 32  2  0  0  0  0
 30 33  1  0  0  0  0
 30 34  1  0  0  0  0
 31 35  1  0  0  0  0
 35 36  1  0  0  0  0
 35 37  1  0  0  0  0
 35 38  2  0  0  0  0
 36 39  1  0  0  0  0
 39 40  1  0  0  0  0
 39 42  2  0  0  0  0
 39 43  2  0  0  0  0
 40 41  1  0  0  0  0
M  BCL ATM N_TrTrTrPi2 C_TeTeTeTe H_S C_TrTrTrPi C_TrTrTrPi H_S C_TeTeTeTe H_S O_Te2Te2TeTe C_TrTrTrPi N_Tr2TrTrPi N_Tr2TrTrPi C_TeTeTeTe H_S O_Te2Te2TeTe H_S C_TeTeTeTe H_S C_TrTrTrPi C_TrTrTrPi H_S O_Tr2TrTrPi2 C_TeTeTeTe H_S H_S N_Tr2TrTrPi N_TrTrTrPi2 H_S H_S P_TeTeTeTePi O_Tr2TrTrPi2 O_Tr2Tr2TrPi O_Te2Te2Te2Te O_Te2Te2Te2Te P_TeTeTeTePi O_Tr2TrTrPi2 O_Te2Te2TeTe O_Tr2Tr2TrPi S_TeTeTeTePiPi O_Te2Te2TeTe H_S O_Tr2Tr2TrPi O_Tr2Tr2TrPi
M  BCL BND NonConjugatedSingleBond AromaticSingleBond AromaticSingleBond NonConjugatedSingleBond NonConjugatedSingleBondInRing NonConjugatedSingleBondInRing AromaticDoubleBond AromaticSingleBond NonConjugatedSingleBond AromaticDoubleBond NonConjugatedSingleBond NonConjugatedSingleBondInRing NonConjugatedSingleBond NonConjugatedSingleBondInRing AromaticSingleBond AromaticSingleBond AromaticDoubleBond NonConjugatedSingleBond NonConjugatedSingleBondInRing NonConjugatedSingleBond NonConjugatedSingleBond NonConjugatedSingleBond NonConjugatedSingleBond AromaticDoubleBond ConjugatedSingleBond NonConjugatedSingleBond AromaticSingleBond ConjugatedSingleBond NonConjugatedSingleBond NonConjugatedSingleBond NonConjugatedSingleBond NonConjugatedSingleBond NonConjugatedSingleBond ConjugatedDoubleBond ConjugatedSingleBond ConjugatedSingleBond ConjugatedSingleBond ConjugatedSingleBond ConjugatedSingleBond ConjugatedDoubleBond ConjugatedSingleBond ConjugatedSingleBond ConjugatedDoubleBond ConjugatedDoubleBond NonConjugatedSingleBond
M  BCL CHI   2   R   7   R  13   S  17   S  35   R
M  BCL DBI - - - - - - - -
M  END
> <ConfClashScore>
0 

> <ConfOneFourInteractionScore>
-0.981627 

> <ConfScore>
-0.177299 

> <ConfScorePBest>
0.00603446 

> <ConfTolerance>
1.38051 

$$$$
ChEBI.****
  PyMOL2.5          3D                             0

 43 45  0  0  0  0  0  0  0  0999 V2000
    1.0867    0.8007    7.0923 N   0  0  0  1  0  0  0  0  0  0  0  0
    0.4625    0.5900    5.8184 C   0  0  0  1  0  0  0  0  0  0  0  0
    0.8718   -0.2862    5.3606 H   0  0  0  1  0  0  0  0  0  0  0  0
    0.8559    1.8284    7.9700 C   0  0  0  1  0  0  0  0  0  0  0  0
    1.9481   -0.0403    7.7275 C   0  0  0  1  0  0  0  0  0  0  0  0
    2.3047   -0.9124    7.2874 H   0  0  0  1  0  0  0  0  0  0  0  0
    0.6685    1.8083    4.9161 C   0  0  0  1  0  0  0  0  0  0  0  0
    0.7369    2.7117    5.4854 H   0  0  0  1  0  0  0  0  0  0  0  0
   -0.9549    0.4561    5.9734 O   0  0  0  1  0  0  0  0  0  0  0  0
    1.6108    1.5238    9.1106 C   0  0  0  1  0  0  0  0  0  0  0  0
    0.0698    2.8916    7.7950 N   0  0  0  1  0  0  0  0  0  0  0  0
    2.2927    0.3304    8.9307 N   0  0  0  1  0  0  0  0  0  0  0  0
   -0.6027    1.7692    4.0808 C   0  0  0  1  0  0  0  0  0  0  0  0
   -0.4748    1.1287    3.2333 H   0  0  0  1  0  0  0  0  0  0  0  0
    1.8345    1.6675    4.1032 O   0  0  0  1  0  0  0  0  0  0  0  0
    1.8942    2.4097    3.4972 H   0  0  0  1  0  0  0  0  0  0  0  0
   -1.6369    1.2375    4.9752 C   0  0  0  1  0  0  0  0  0  0  0  0
   -2.3184    0.6216    4.4265 H   0  0  0  1  0  0  0  0  0  0  0  0
    1.5146    2.4385   10.1551 C   0  0  0  1  0  0  0  0  0  0  0  0
    0.0790    3.6804    8.8626 C   0  0  0  1  0  0  0  0  0  0  0  0
   -0.5104    4.5347    8.7957 H   0  0  0  1  0  0  0  0  0  0  0  0
   -0.9528    3.0890    3.6358 O   0  0  0  1  0  0  0  0  0  0  0  0
   -2.3854    2.3571    5.6203 C   0  0  0  1  0  0  0  0  0  0  0  0
   -2.9001    2.9279    4.8759 H   0  0  0  1  0  0  0  0  0  0  0  0
   -1.7064    2.9915    6.1507 H   0  0  0  1  0  0  0  0  0  0  0  0
    0.7463    3.5244   10.0168 N   0  0  0  1  0  0  0  0  0  0  0  0
    2.1772    2.2871   11.3446 N   0  0  0  1  0  0  0  0  0  0  0  0
    2.0502    2.9414   12.0630 H   0  0  0  1  0  0  0  0  0  0  0  0
    2.7782    1.5244   11.4772 H   0  0  0  1  0  0  0  0  0  0  0  0
    0.1614    4.1453    3.2873 P   0  0  0  1  0  0  0  0  0  0  0  0
   -3.3401    1.7743    6.5434 O   0  0  0  1  0  0  0  0  0  0  0  0
    0.9925    3.6808    2.1542 O   0  0  0  1  0  0  0  0  0  0  0  0
    0.9994    4.5051    4.6262 O   0  5  0  1  0  0  0  0  0  0  0  0
   -0.6984    5.4356    2.8181 O   0  5  0  1  0  0  0  0  0  0  0  0
   -3.1254    1.8787    8.0987 P   0  0  0  1  0  0  0  0  0  0  0  0
   -4.3355    0.9829    8.7012 O   0  0  0  1  0  0  0  0  0  0  0  0
   -3.4480    3.2881    8.4395 O   0  0  0  0  0  0  0  0  0  0  0  0
   -1.8192    1.3179    8.4910 O   0  0  0  1  0  0  0  0  0  0  0  0
   -4.8538   -0.3432    8.0723 S   0  0  0  1  0  0  0  0  0  0  0  0
   -5.9704   -0.0255    7.2353 O   0  0  0  1  0  0  0  0  0  0  0  0
   -5.6546    0.3192    6.3969 H   0  0  0  1  0  0  0  0  0  0  0  0
   -3.7151   -0.7770    7.3487 O   0  0  0  1  0  0  0  0  0  0  0  0
   -5.2406   -1.2078    9.1252 O   0  0  0  1  0  0  0  0  0  0  0  0
  1  2  1  0  0  0  0
  1  4  1  0  0  0  0
  1  5  1  0  0  0  0
  2  3  1  0  0  0  0
  2  7  1  0  0  0  0
  2  9  1  0  0  0  0
  4 10  2  0  0  0  0
  4 11  1  0  0  0  0
  5  6  1  0  0  0  0
  5 12  2  0  0  0  0
  7  8  1  0  0  0  0
  7 13  1  0  0  0  0
  7 15  1  0  0  0  0
  9 17  1  0  0  0  0
 10 12  1  0  0  0  0
 10 19  1  0  0  0  0
 11 20  2  0  0  0  0
 13 14  1  0  0  0  0
 13 17  1  0  0  0  0
 13 22  1  0  0  0  0
 15 16  1  0  0  0  0
 17 18  1  0  0  0  0
 17 23  1  0  0  0  0
 19 26  2  0  0  0  0
 19 27  1  0  0  0  0
 20 21  1  0  0  0  0
 20 26  1  0  0  0  0
 22 30  1  0  0  0  0
 23 24  1  0  0  0  0
 23 25  1  0  0  0  0
 23 31  1  0  0  0  0
 27 28  1  0  0  0  0
 27 29  1  0  0  0  0
 30 32  2  0  0  0  0
 30 33  1  0  0  0  0
 30 34  1  0  0  0  0
 31 35  1  0  0  0  0
 35 36  1  0  0  0  0
 35 37  1  0  0  0  0
 35 38  2  0  0  0  0
 36 39  1  0  0  0  0
 39 40  1  0  0  0  0
 39 42  2  0  0  0  0
 39 43  2  0  0  0  0
 40 41  1  0  0  0  0
M  BCL ATM N_TrTrTrPi2 C_TeTeTeTe H_S C_TrTrTrPi C_TrTrTrPi H_S C_TeTeTeTe H_S O_Te2Te2TeTe C_TrTrTrPi N_Tr2TrTrPi N_Tr2TrTrPi C_TeTeTeTe H_S O_Te2Te2TeTe H_S C_TeTeTeTe H_S C_TrTrTrPi C_TrTrTrPi H_S O_Tr2TrTrPi2 C_TeTeTeTe H_S H_S N_Tr2TrTrPi N_TrTrTrPi2 H_S H_S P_TeTeTeTePi O_Tr2TrTrPi2 O_Tr2Tr2TrPi O_Te2Te2Te2Te O_Te2Te2Te2Te P_TeTeTeTePi O_Tr2TrTrPi2 O_Te2Te2TeTe O_Tr2Tr2TrPi S_TeTeTeTePiPi O_Te2Te2TeTe H_S O_Tr2Tr2TrPi O_Tr2Tr2TrPi
M  BCL BND NonConjugatedSingleBond AromaticSingleBond AromaticSingleBond NonConjugatedSingleBond NonConjugatedSingleBondInRing NonConjugatedSingleBondInRing AromaticDoubleBond AromaticSingleBond NonConjugatedSingleBond AromaticDoubleBond NonConjugatedSingleBond NonConjugatedSingleBondInRing NonConjugatedSingleBond NonConjugatedSingleBondInRing AromaticSingleBond AromaticSingleBond AromaticDoubleBond NonConjugatedSingleBond NonConjugatedSingleBondInRing NonConjugatedSingleBond NonConjugatedSingleBond NonConjugatedSingleBond NonConjugatedSingleBond AromaticDoubleBond ConjugatedSingleBond NonConjugatedSingleBond AromaticSingleBond ConjugatedSingleBond NonConjugatedSingleBond NonConjugatedSingleBond NonConjugatedSingleBond NonConjugatedSingleBond NonConjugatedSingleBond ConjugatedDoubleBond ConjugatedSingleBond ConjugatedSingleBond ConjugatedSingleBond ConjugatedSingleBond ConjugatedSingleBond ConjugatedDoubleBond ConjugatedSingleBond ConjugatedSingleBond ConjugatedDoubleBond ConjugatedDoubleBond NonConjugatedSingleBond
M  BCL CHI   2   R   7   R  13   S  17   S  35   R
M  BCL DBI - - - - - - - -
M  END
> <ConfClashScore>
0 

> <ConfOneFourInteractionScore>
-0.966405 

> <ConfScore>
-0.174277 

> <ConfScorePBest>
0.00593146 

> <ConfTolerance>
1.58723 

$$$$
ChEBI.****
  PyMOL2.5          3D                             0

 43 45  0  0  0  0  0  0  0  0999 V2000
    1.0566    0.7782    7.1107 N   0  0  0  1  0  0  0  0  0  0  0  0
    0.5554    0.6635    5.7398 C   0  0  0  1  0  0  0  0  0  0  0  0
   -0.5108    0.7541    5.7405 H   0  0  0  1  0  0  0  0  0  0  0  0
    0.8363    1.8135    7.9820 C   0  0  0  1  0  0  0  0  0  0  0  0
    1.9238   -0.0584    7.7439 C   0  0  0  1  0  0  0  0  0  0  0  0
    2.2748   -0.9347    7.3074 H   0  0  0  1  0  0  0  0  0  0  0  0
    0.9821   -0.6666    5.1202 C   0  0  0  1  0  0  0  0  0  0  0  0
    1.9273   -0.9902    5.5031 H   0  0  0  1  0  0  0  0  0  0  0  0
    1.1547    1.6784    4.8890 O   0  0  0  1  0  0  0  0  0  0  0  0
    1.6029    1.5176    9.1172 C   0  0  0  1  0  0  0  0  0  0  0  0
    0.0496    2.8761    7.8065 N   0  0  0  1  0  0  0  0  0  0  0  0
    2.2815    0.3219    8.9402 N   0  0  0  1  0  0  0  0  0  0  0  0
    1.0751   -0.3040    3.6605 C   0  0  0  1  0  0  0  0  0  0  0  0
    0.1091   -0.2995    3.2003 H   0  0  0  1  0  0  0  0  0  0  0  0
    0.0038   -1.6831    5.3435 O   0  0  0  1  0  0  0  0  0  0  0  0
   -0.3727   -1.9555    4.5034 H   0  0  0  1  0  0  0  0  0  0  0  0
    1.6663    1.0932    3.7101 C   0  0  0  1  0  0  0  0  0  0  0  0
    1.3653    1.6571    2.8519 H   0  0  0  1  0  0  0  0  0  0  0  0
    1.5187    2.4412   10.1549 C   0  0  0  1  0  0  0  0  0  0  0  0
    0.0709    3.6739    8.8671 C   0  0  0  1  0  0  0  0  0  0  0  0
   -0.5182    4.5283    8.7993 H   0  0  0  1  0  0  0  0  0  0  0  0
    1.9473   -1.2182    2.9469 O   0  0  0  1  0  0  0  0  0  0  0  0
    3.1572    1.0270    3.7652 C   0  0  0  1  0  0  0  0  0  0  0  0
    3.5481    0.8030    2.7947 H   0  0  0  1  0  0  0  0  0  0  0  0
    3.4630    0.2701    4.4569 H   0  0  0  1  0  0  0  0  0  0  0  0
    0.7502    3.5268   10.0156 N   0  0  0  1  0  0  0  0  0  0  0  0
    2.1937    2.2990   11.3386 N   0  0  0  1  0  0  0  0  0  0  0  0
    2.0950    2.9732   12.0430 H   0  0  0  1  0  0  0  0  0  0  0  0
    2.7752    1.5231   11.4809 H   0  0  0  1  0  0  0  0  0  0  0  0
    1.7399   -1.4999    1.3446 P   0  0  0  1  0  0  0  0  0  0  0  0
    3.6349    2.3098    4.2009 O   0  0  0  1  0  0  0  0  0  0  0  0
    1.7096   -0.2498    0.5530 O   0  0  0  1  0  0  0  0  0  0  0  0
    0.2164   -2.0491    1.3015 O   0  5  0  1  0  0  0  0  0  0  0  0
    2.7675   -2.6475    0.8431 O   0  5  0  1  0  0  0  0  0  0  0  0
    5.1733    2.7201    4.3539 P   0  0  0  1  0  0  0  0  0  0  0  0
    5.6387    1.8639    5.7175 O   0  0  0  1  0  0  0  0  0  0  0  0
    5.1878    4.1663    4.6379 O   0  0  0  0  0  0  0  0  0  0  0  0
    5.9800    2.1360    3.2715 O   0  0  0  1  0  0  0  0  0  0  0  0
    6.9029    1.0071    6.2280 S   0  0  0  1  0  0  0  0  0  0  0  0
    6.3179    0.3388    7.3698 O   0  0  0  1  0  0  0  0  0  0  0  0
    7.0125   -0.0642    7.8958 H   0  0  0  1  0  0  0  0  0  0  0  0
    7.2601    0.1189    5.1580 O   0  0  0  1  0  0  0  0  0  0  0  0
    7.9501    1.9437    6.5391 O   0  0  0  1  0  0  0  0  0  0  0  0
  1  2  1  0  0  0  0
  1  4  1  0  0  0  0
  1  5  1  0  0  0  0
  2  3  1  0  0  0  0
  2  7  1  0  0  0  0
  2  9  1  0  0  0  0
  4 10  2  0  0  0  0
  4 11  1  0  0  0  0
  5  6  1  0  0  0  0
  5 12  2  0  0  0  0
  7  8  1  0  0  0  0
  7 13  1  0  0  0  0
  7 15  1  0  0  0  0
  9 17  1  0  0  0  0
 10 12  1  0  0  0  0
 10 19  1  0  0  0  0
 11 20  2  0  0  0  0
 13 14  1  0  0  0  0
 13 17  1  0  0  0  0
 13 22  1  0  0  0  0
 15 16  1  0  0  0  0
 17 18  1  0  0  0  0
 17 23  1  0  0  0  0
 19 26  2  0  0  0  0
 19 27  1  0  0  0  0
 20 21  1  0  0  0  0
 20 26  1  0  0  0  0
 22 30  1  0  0  0  0
 23 24  1  0  0  0  0
 23 25  1  0  0  0  0
 23 31  1  0  0  0  0
 27 28  1  0  0  0  0
 27 29  1  0  0  0  0
 30 32  2  0  0  0  0
 30 33  1  0  0  0  0
 30 34  1  0  0  0  0
 31 35  1  0  0  0  0
 35 36  1  0  0  0  0
 35 37  1  0  0  0  0
 35 38  2  0  0  0  0
 36 39  1  0  0  0  0
 39 40  1  0  0  0  0
 39 42  2  0  0  0  0
 39 43  2  0  0  0  0
 40 41  1  0  0  0  0
M  BCL ATM N_TrTrTrPi2 C_TeTeTeTe H_S C_TrTrTrPi C_TrTrTrPi H_S C_TeTeTeTe H_S O_Te2Te2TeTe C_TrTrTrPi N_Tr2TrTrPi N_Tr2TrTrPi C_TeTeTeTe H_S O_Te2Te2TeTe H_S C_TeTeTeTe H_S C_TrTrTrPi C_TrTrTrPi H_S O_Tr2TrTrPi2 C_TeTeTeTe H_S H_S N_Tr2TrTrPi N_TrTrTrPi2 H_S H_S P_TeTeTeTePi O_Tr2TrTrPi2 O_Tr2Tr2TrPi O_Te2Te2Te2Te O_Te2Te2Te2Te P_TeTeTeTePi O_Tr2TrTrPi2 O_Te2Te2TeTe O_Tr2Tr2TrPi S_TeTeTeTePiPi O_Te2Te2TeTe H_S O_Tr2Tr2TrPi O_Tr2Tr2TrPi
M  BCL BND NonConjugatedSingleBond AromaticSingleBond AromaticSingleBond NonConjugatedSingleBond NonConjugatedSingleBondInRing NonConjugatedSingleBondInRing AromaticDoubleBond AromaticSingleBond NonConjugatedSingleBond AromaticDoubleBond NonConjugatedSingleBond NonConjugatedSingleBondInRing NonConjugatedSingleBond NonConjugatedSingleBondInRing AromaticSingleBond AromaticSingleBond AromaticDoubleBond NonConjugatedSingleBond NonConjugatedSingleBondInRing NonConjugatedSingleBond NonConjugatedSingleBond NonConjugatedSingleBond NonConjugatedSingleBond AromaticDoubleBond ConjugatedSingleBond NonConjugatedSingleBond AromaticSingleBond ConjugatedSingleBond NonConjugatedSingleBond NonConjugatedSingleBond NonConjugatedSingleBond NonConjugatedSingleBond NonConjugatedSingleBond ConjugatedDoubleBond ConjugatedSingleBond ConjugatedSingleBond ConjugatedSingleBond ConjugatedSingleBond ConjugatedSingleBond ConjugatedDoubleBond ConjugatedSingleBond ConjugatedSingleBond ConjugatedDoubleBond ConjugatedDoubleBond NonConjugatedSingleBond
M  BCL CHI   2   R   7   R  13   S  17   S  35   R
M  BCL DBI - - - - - - - -
M  END
> <ConfClashScore>
0 

> <ConfOneFourInteractionScore>
-0.980391 

> <ConfScore>
-0.170168 

> <ConfScorePBest>
0.00582846 

> <ConfTolerance>
1.67222 

$$$$
ChEBI.****
  PyMOL2.5          3D                             0

 43 45  0  0  0  0  0  0  0  0999 V2000
    1.0683    0.7848    7.0922 N   0  0  0  1  0  0  0  0  0  0  0  0
    0.4825    0.6248    5.7306 C   0  0  0  1  0  0  0  0  0  0  0  0
   -0.5491    0.3536    5.8153 H   0  0  0  1  0  0  0  0  0  0  0  0
    0.8486    1.8136    7.9714 C   0  0  0  1  0  0  0  0  0  0  0  0
    1.9318   -0.0591    7.7206 C   0  0  0  1  0  0  0  0  0  0  0  0
    2.2817   -0.9327    7.2778 H   0  0  0  1  0  0  0  0  0  0  0  0
    1.2461   -0.4629    4.9587 C   0  0  0  1  0  0  0  0  0  0  0  0
    1.8453   -1.0552    5.6183 H   0  0  0  1  0  0  0  0  0  0  0  0
    0.6016    1.8238    5.0182 O   0  0  0  1  0  0  0  0  0  0  0  0
    1.6117    1.5065    9.1059 C   0  0  0  1  0  0  0  0  0  0  0  0
    0.0649    2.8796    7.8026 N   0  0  0  1  0  0  0  0  0  0  0  0
    2.2877    0.3106    8.9208 N   0  0  0  1  0  0  0  0  0  0  0  0
    2.1221    0.3547    4.0000 C   0  0  0  1  0  0  0  0  0  0  0  0
    2.2864   -0.1760    3.0856 H   0  0  0  1  0  0  0  0  0  0  0  0
    0.3486   -1.3102    4.2399 O   0  0  0  1  0  0  0  0  0  0  0  0
    0.2158   -0.9599    3.3560 H   0  0  0  1  0  0  0  0  0  0  0  0
    1.3091    1.6061    3.7597 C   0  0  0  1  0  0  0  0  0  0  0  0
    0.6174    1.4601    2.9565 H   0  0  0  1  0  0  0  0  0  0  0  0
    1.5274    2.4219   10.1509 C   0  0  0  1  0  0  0  0  0  0  0  0
    0.0858    3.6687    8.8697 C   0  0  0  1  0  0  0  0  0  0  0  0
   -0.5010    4.5251    8.8074 H   0  0  0  1  0  0  0  0  0  0  0  0
    3.3990    0.6753    4.6103 O   0  0  0  1  0  0  0  0  0  0  0  0
    2.1995    2.7632    3.4465 C   0  0  0  1  0  0  0  0  0  0  0  0
    2.7963    3.0054    4.3009 H   0  0  0  1  0  0  0  0  0  0  0  0
    1.6100    3.6124    3.1703 H   0  0  0  1  0  0  0  0  0  0  0  0
    0.7620    3.5106   10.0185 N   0  0  0  1  0  0  0  0  0  0  0  0
    2.1841    2.3202   11.3725 N   0  0  0  1  0  0  0  0  0  0  0  0
    2.0706    3.0196   12.0495 H   0  0  0  1  0  0  0  0  0  0  0  0
    2.7602    1.5490   11.5564 H   0  0  0  1  0  0  0  0  0  0  0  0
    4.8078    0.2880    3.8653 P   0  0  0  1  0  0  0  0  0  0  0  0
    3.0523    2.3756    2.3436 O   0  0  0  1  0  0  0  0  0  0  0  0
    4.5424    0.0839    2.4236 O   0  0  0  1  0  0  0  0  0  0  0  0
    5.1851   -1.1404    4.5300 O   0  5  0  1  0  0  0  0  0  0  0  0
    5.9854    1.3394    4.2285 O   0  5  0  1  0  0  0  0  0  0  0  0
    2.8287    2.9693    0.9036 P   0  0  0  1  0  0  0  0  0  0  0  0
    3.3687    4.5454    1.0863 O   0  0  0  1  0  0  0  0  0  0  0  0
    1.3547    3.0179    0.6036 O   0  0  0  0  0  0  0  0  0  0  0  0
    3.6900    2.1792   -0.0056 O   0  0  0  1  0  0  0  0  0  0  0  0
    3.0679    5.9542    0.4977 S   0  0  0  1  0  0  0  0  0  0  0  0
    3.9699    6.8723    1.3477 O   0  0  0  1  0  0  0  0  0  0  0  0
    4.7024    6.3630    1.7022 H   0  0  0  1  0  0  0  0  0  0  0  0
    3.4458    6.0525   -0.8163 O   0  0  0  1  0  0  0  0  0  0  0  0
    1.8687    6.3344    1.0977 O   0  0  0  1  0  0  0  0  0  0  0  0
  1  2  1  0  0  0  0
  1  4  1  0  0  0  0
  1  5  1  0  0  0  0
  2  3  1  0  0  0  0
  2  7  1  0  0  0  0
  2  9  1  0  0  0  0
  4 10  2  0  0  0  0
  4 11  1  0  0  0  0
  5  6  1  0  0  0  0
  5 12  2  0  0  0  0
  7  8  1  0  0  0  0
  7 13  1  0  0  0  0
  7 15  1  0  0  0  0
  9 17  1  0  0  0  0
 10 12  1  0  0  0  0
 10 19  1  0  0  0  0
 11 20  2  0  0  0  0
 13 14  1  0  0  0  0
 13 17  1  0  0  0  0
 13 22  1  0  0  0  0
 15 16  1  0  0  0  0
 17 18  1  0  0  0  0
 17 23  1  0  0  0  0
 19 26  2  0  0  0  0
 19 27  1  0  0  0  0
 20 21  1  0  0  0  0
 20 26  1  0  0  0  0
 22 30  1  0  0  0  0
 23 24  1  0  0  0  0
 23 25  1  0  0  0  0
 23 31  1  0  0  0  0
 27 28  1  0  0  0  0
 27 29  1  0  0  0  0
 30 32  2  0  0  0  0
 30 33  1  0  0  0  0
 30 34  1  0  0  0  0
 31 35  1  0  0  0  0
 35 36  1  0  0  0  0
 35 37  1  0  0  0  0
 35 38  2  0  0  0  0
 36 39  1  0  0  0  0
 39 40  1  0  0  0  0
 39 42  2  0  0  0  0
 39 43  2  0  0  0  0
 40 41  1  0  0  0  0
M  BCL ATM N_TrTrTrPi2 C_TeTeTeTe H_S C_TrTrTrPi C_TrTrTrPi H_S C_TeTeTeTe H_S O_Te2Te2TeTe C_TrTrTrPi N_Tr2TrTrPi N_Tr2TrTrPi C_TeTeTeTe H_S O_Te2Te2TeTe H_S C_TeTeTeTe H_S C_TrTrTrPi C_TrTrTrPi H_S O_Tr2TrTrPi2 C_TeTeTeTe H_S H_S N_Tr2TrTrPi N_TrTrTrPi2 H_S H_S P_TeTeTeTePi O_Tr2TrTrPi2 O_Tr2Tr2TrPi O_Te2Te2Te2Te O_Te2Te2Te2Te P_TeTeTeTePi O_Tr2TrTrPi2 O_Te2Te2TeTe O_Tr2Tr2TrPi S_TeTeTeTePiPi O_Te2Te2TeTe H_S O_Tr2Tr2TrPi O_Tr2Tr2TrPi
M  BCL BND NonConjugatedSingleBond AromaticSingleBond AromaticSingleBond NonConjugatedSingleBond NonConjugatedSingleBondInRing NonConjugatedSingleBondInRing AromaticDoubleBond AromaticSingleBond NonConjugatedSingleBond AromaticDoubleBond NonConjugatedSingleBond NonConjugatedSingleBondInRing NonConjugatedSingleBond NonConjugatedSingleBondInRing AromaticSingleBond AromaticSingleBond AromaticDoubleBond NonConjugatedSingleBond NonConjugatedSingleBondInRing NonConjugatedSingleBond NonConjugatedSingleBond NonConjugatedSingleBond NonConjugatedSingleBond AromaticDoubleBond ConjugatedSingleBond NonConjugatedSingleBond AromaticSingleBond ConjugatedSingleBond NonConjugatedSingleBond NonConjugatedSingleBond NonConjugatedSingleBond NonConjugatedSingleBond NonConjugatedSingleBond ConjugatedDoubleBond ConjugatedSingleBond ConjugatedSingleBond ConjugatedSingleBond ConjugatedSingleBond ConjugatedSingleBond ConjugatedDoubleBond ConjugatedSingleBond ConjugatedSingleBond ConjugatedDoubleBond ConjugatedDoubleBond NonConjugatedSingleBond
M  BCL CHI   2   R   7   R  13   S  17   S  35   R
M  BCL DBI - - - - - - - -
M  END
> <ConfClashScore>
0 

> <ConfOneFourInteractionScore>
-0.977702 

> <ConfScore>
-0.157868 

> <ConfScorePBest>
0.00572546 

> <ConfTolerance>
1.69759 

$$$$
ChEBI.****
  PyMOL2.5          3D                             0

 43 45  0  0  0  0  0  0  0  0999 V2000
    1.0693    0.7969    7.1000 N   0  0  0  1  0  0  0  0  0  0  0  0
    0.5290    0.5887    5.7651 C   0  0  0  1  0  0  0  0  0  0  0  0
    0.4010   -0.4592    5.5910 H   0  0  0  1  0  0  0  0  0  0  0  0
    0.8435    1.8260    7.9772 C   0  0  0  1  0  0  0  0  0  0  0  0
    1.9352   -0.0425    7.7312 C   0  0  0  1  0  0  0  0  0  0  0  0
    2.2896   -0.9152    7.2904 H   0  0  0  1  0  0  0  0  0  0  0  0
    1.4546    1.2001    4.7091 C   0  0  0  1  0  0  0  0  0  0  0  0
    2.0666    1.9683    5.1337 H   0  0  0  1  0  0  0  0  0  0  0  0
   -0.7280    1.2857    5.6122 O   0  0  0  1  0  0  0  0  0  0  0  0
    1.6058    1.5239    9.1136 C   0  0  0  1  0  0  0  0  0  0  0  0
    0.0557    2.8884    7.8054 N   0  0  0  1  0  0  0  0  0  0  0  0
    2.2872    0.3305    8.9315 N   0  0  0  1  0  0  0  0  0  0  0  0
    0.4934    1.7710    3.6999 C   0  0  0  1  0  0  0  0  0  0  0  0
    0.1845    1.0259    2.9969 H   0  0  0  1  0  0  0  0  0  0  0  0
    2.2861    0.2011    4.1167 O   0  0  0  1  0  0  0  0  0  0  0  0
    3.1695    0.2579    4.4881 H   0  0  0  1  0  0  0  0  0  0  0  0
   -0.6827    2.2277    4.5752 C   0  0  0  1  0  0  0  0  0  0  0  0
   -1.5956    2.2211    4.0170 H   0  0  0  1  0  0  0  0  0  0  0  0
    1.5157    2.4404   10.1570 C   0  0  0  1  0  0  0  0  0  0  0  0
    0.0712    3.6792    8.8714 C   0  0  0  1  0  0  0  0  0  0  0  0
   -0.5191    4.5330    8.8067 H   0  0  0  1  0  0  0  0  0  0  0  0
    1.0833    2.8907    2.9909 O   0  0  0  1  0  0  0  0  0  0  0  0
   -0.4389    3.5983    5.1157 C   0  0  0  1  0  0  0  0  0  0  0  0
   -0.2460    4.2779    4.3121 H   0  0  0  1  0  0  0  0  0  0  0  0
    0.3995    3.5840    5.7804 H   0  0  0  1  0  0  0  0  0  0  0  0
    0.7459    3.5256   10.0217 N   0  0  0  1  0  0  0  0  0  0  0  0
    2.1860    2.2915   11.3426 N   0  0  0  1  0  0  0  0  0  0  0  0
    2.0343    2.9257   12.0742 H   0  0  0  1  0  0  0  0  0  0  0  0
    2.8171    1.5509   11.4590 H   0  0  0  1  0  0  0  0  0  0  0  0
    0.5657    3.3025    1.4902 P   0  0  0  1  0  0  0  0  0  0  0  0
   -1.6198    4.0033    5.8264 O   0  0  0  1  0  0  0  0  0  0  0  0
    0.6351    2.2645    0.4376 O   0  0  0  1  0  0  0  0  0  0  0  0
    1.4685    4.4972    0.8721 O   0  5  0  1  0  0  0  0  0  0  0  0
   -0.9613    3.8374    1.5712 O   0  5  0  1  0  0  0  0  0  0  0  0
   -2.9625    4.5349    5.1536 P   0  0  0  1  0  0  0  0  0  0  0  0
   -2.5073    6.0894    5.0755 O   0  0  0  1  0  0  0  0  0  0  0  0
   -4.1105    4.4041    6.0698 O   0  0  0  0  0  0  0  0  0  0  0  0
   -3.0702    3.9902    3.7887 O   0  0  0  1  0  0  0  0  0  0  0  0
   -2.7001    7.0531    3.7634 S   0  0  0  1  0  0  0  0  0  0  0  0
   -1.3938    7.2969    3.2426 O   0  0  0  1  0  0  0  0  0  0  0  0
   -0.7672    7.3628    3.9669 H   0  0  0  1  0  0  0  0  0  0  0  0
   -3.5775    6.3902    2.8570 O   0  0  0  1  0  0  0  0  0  0  0  0
   -3.2810    8.1615    4.4307 O   0  0  0  1  0  0  0  0  0  0  0  0
  1  2  1  0  0  0  0
  1  4  1  0  0  0  0
  1  5  1  0  0  0  0
  2  3  1  0  0  0  0
  2  7  1  0  0  0  0
  2  9  1  0  0  0  0
  4 10  2  0  0  0  0
  4 11  1  0  0  0  0
  5  6  1  0  0  0  0
  5 12  2  0  0  0  0
  7  8  1  0  0  0  0
  7 13  1  0  0  0  0
  7 15  1  0  0  0  0
  9 17  1  0  0  0  0
 10 12  1  0  0  0  0
 10 19  1  0  0  0  0
 11 20  2  0  0  0  0
 13 14  1  0  0  0  0
 13 17  1  0  0  0  0
 13 22  1  0  0  0  0
 15 16  1  0  0  0  0
 17 18  1  0  0  0  0
 17 23  1  0  0  0  0
 19 26  2  0  0  0  0
 19 27  1  0  0  0  0
 20 21  1  0  0  0  0
 20 26  1  0  0  0  0
 22 30  1  0  0  0  0
 23 24  1  0  0  0  0
 23 25  1  0  0  0  0
 23 31  1  0  0  0  0
 27 28  1  0  0  0  0
 27 29  1  0  0  0  0
 30 32  2  0  0  0  0
 30 33  1  0  0  0  0
 30 34  1  0  0  0  0
 31 35  1  0  0  0  0
 35 36  1  0  0  0  0
 35 37  1  0  0  0  0
 35 38  2  0  0  0  0
 36 39  1  0  0  0  0
 39 40  1  0  0  0  0
 39 42  2  0  0  0  0
 39 43  2  0  0  0  0
 40 41  1  0  0  0  0
M  BCL ATM N_TrTrTrPi2 C_TeTeTeTe H_S C_TrTrTrPi C_TrTrTrPi H_S C_TeTeTeTe H_S O_Te2Te2TeTe C_TrTrTrPi N_Tr2TrTrPi N_Tr2TrTrPi C_TeTeTeTe H_S O_Te2Te2TeTe H_S C_TeTeTeTe H_S C_TrTrTrPi C_TrTrTrPi H_S O_Tr2TrTrPi2 C_TeTeTeTe H_S H_S N_Tr2TrTrPi N_TrTrTrPi2 H_S H_S P_TeTeTeTePi O_Tr2TrTrPi2 O_Tr2Tr2TrPi O_Te2Te2Te2Te O_Te2Te2Te2Te P_TeTeTeTePi O_Tr2TrTrPi2 O_Te2Te2TeTe O_Tr2Tr2TrPi S_TeTeTeTePiPi O_Te2Te2TeTe H_S O_Tr2Tr2TrPi O_Tr2Tr2TrPi
M  BCL BND NonConjugatedSingleBond AromaticSingleBond AromaticSingleBond NonConjugatedSingleBond NonConjugatedSingleBondInRing NonConjugatedSingleBondInRing AromaticDoubleBond AromaticSingleBond NonConjugatedSingleBond AromaticDoubleBond NonConjugatedSingleBond NonConjugatedSingleBondInRing NonConjugatedSingleBond NonConjugatedSingleBondInRing AromaticSingleBond AromaticSingleBond AromaticDoubleBond NonConjugatedSingleBond NonConjugatedSingleBondInRing NonConjugatedSingleBond NonConjugatedSingleBond NonConjugatedSingleBond NonConjugatedSingleBond AromaticDoubleBond ConjugatedSingleBond NonConjugatedSingleBond AromaticSingleBond ConjugatedSingleBond NonConjugatedSingleBond NonConjugatedSingleBond NonConjugatedSingleBond NonConjugatedSingleBond NonConjugatedSingleBond ConjugatedDoubleBond ConjugatedSingleBond ConjugatedSingleBond ConjugatedSingleBond ConjugatedSingleBond ConjugatedSingleBond ConjugatedDoubleBond ConjugatedSingleBond ConjugatedSingleBond ConjugatedDoubleBond ConjugatedDoubleBond NonConjugatedSingleBond
M  BCL CHI   2   R   7   R  13   S  17   S  35   R
M  BCL DBI - - - - - - - -
M  END
> <ConfClashScore>
0 

> <ConfOneFourInteractionScore>
-0.981627 

> <ConfScore>
-0.156853 

> <ConfScorePBest>
0.00562246 

> <ConfTolerance>
1.7453 

$$$$
ChEBI.****
  PyMOL2.5          3D                             0

 43 45  0  0  0  0  0  0  0  0999 V2000
    1.0777    0.7800    7.1428 N   0  0  0  1  0  0  0  0  0  0  0  0
    0.4823    0.6360    5.7836 C   0  0  0  1  0  0  0  0  0  0  0  0
    0.9787   -0.1528    5.2580 H   0  0  0  1  0  0  0  0  0  0  0  0
    0.8470    1.8323    7.9909 C   0  0  0  1  0  0  0  0  0  0  0  0
    1.9304   -0.0480    7.8062 C   0  0  0  1  0  0  0  0  0  0  0  0
    2.2851   -0.9336    7.3920 H   0  0  0  1  0  0  0  0  0  0  0  0
    0.5809    1.9553    5.0040 C   0  0  0  1  0  0  0  0  0  0  0  0
    0.4781    2.7973    5.6562 H   0  0  0  1  0  0  0  0  0  0  0  0
   -0.8945    0.3867    5.8685 O   0  0  0  1  0  0  0  0  0  0  0  0
    1.5928    1.5545    9.1443 C   0  0  0  1  0  0  0  0  0  0  0  0
    0.0678    2.8945    7.7822 N   0  0  0  1  0  0  0  0  0  0  0  0
    2.2693    0.3531    9.0012 N   0  0  0  1  0  0  0  0  0  0  0  0
   -0.5804    1.8630    4.0494 C   0  0  0  1  0  0  0  0  0  0  0  0
   -0.3104    1.3198    3.1679 H   0  0  0  1  0  0  0  0  0  0  0  0
    1.8203    2.0460    4.3000 O   0  0  0  1  0  0  0  0  0  0  0  0
    2.4705    2.4873    4.8513 H   0  0  0  1  0  0  0  0  0  0  0  0
   -1.6376    1.1060    4.8587 C   0  0  0  1  0  0  0  0  0  0  0  0
   -2.1747    0.4255    4.2315 H   0  0  0  1  0  0  0  0  0  0  0  0
    1.4950    2.4976   10.1631 C   0  0  0  1  0  0  0  0  0  0  0  0
    0.0745    3.7118    8.8282 C   0  0  0  1  0  0  0  0  0  0  0  0
   -0.5098    4.5670    8.7344 H   0  0  0  1  0  0  0  0  0  0  0  0
   -1.0555    3.1830    3.6785 O   0  0  0  1  0  0  0  0  0  0  0  0
   -2.5950    2.0606    5.4930 C   0  0  0  1  0  0  0  0  0  0  0  0
   -2.0720    2.7088    6.1647 H   0  0  0  1  0  0  0  0  0  0  0  0
   -3.3461    1.5203    6.0303 H   0  0  0  1  0  0  0  0  0  0  0  0
    0.7335    3.5835    9.9906 N   0  0  0  1  0  0  0  0  0  0  0  0
    2.2031    2.2347   11.2911 N   0  0  0  1  0  0  0  0  0  0  0  0
    2.8015    1.4593   11.3244 H   0  0  0  1  0  0  0  0  0  0  0  0
    2.1160    2.8203   12.0720 H   0  0  0  1  0  0  0  0  0  0  0  0
   -0.0063    4.4257    3.4678 P   0  0  0  1  0  0  0  0  0  0  0  0
   -3.2071    2.8363    4.4360 O   0  0  0  1  0  0  0  0  0  0  0  0
    0.9846    4.7066    4.5306 O   0  0  0  1  0  0  0  0  0  0  0  0
   -0.9363    5.7404    3.2916 O   0  5  0  1  0  0  0  0  0  0  0  0
    0.6595    4.2289    2.0041 O   0  5  0  1  0  0  0  0  0  0  0  0
   -4.3890    3.8848    4.6917 P   0  0  0  1  0  0  0  0  0  0  0  0
   -5.2056    3.8866    3.2281 O   0  0  0  1  0  0  0  0  0  0  0  0
   -3.8040    5.2457    4.9040 O   0  0  0  0  0  0  0  0  0  0  0  0
   -5.2984    3.2913    5.6973 O   0  0  0  1  0  0  0  0  0  0  0  0
   -5.1298    3.1417    1.8170 S   0  0  0  1  0  0  0  0  0  0  0  0
   -3.9059    2.3647    1.8256 O   0  0  0  1  0  0  0  0  0  0  0  0
   -4.1126    1.4396    1.6740 H   0  0  0  1  0  0  0  0  0  0  0  0
   -6.3028    2.3031    1.7340 O   0  0  0  1  0  0  0  0  0  0  0  0
   -5.1167    4.2466    0.8990 O   0  0  0  1  0  0  0  0  0  0  0  0
  1  2  1  0  0  0  0
  1  4  1  0  0  0  0
  1  5  1  0  0  0  0
  2  3  1  0  0  0  0
  2  7  1  0  0  0  0
  2  9  1  0  0  0  0
  4 10  2  0  0  0  0
  4 11  1  0  0  0  0
  5  6  1  0  0  0  0
  5 12  2  0  0  0  0
  7  8  1  0  0  0  0
  7 13  1  0  0  0  0
  7 15  1  0  0  0  0
  9 17  1  0  0  0  0
 10 12  1  0  0  0  0
 10 19  1  0  0  0  0
 11 20  2  0  0  0  0
 13 14  1  0  0  0  0
 13 17  1  0  0  0  0
 13 22  1  0  0  0  0
 15 16  1  0  0  0  0
 17 18  1  0  0  0  0
 17 23  1  0  0  0  0
 19 26  2  0  0  0  0
 19 27  1  0  0  0  0
 20 21  1  0  0  0  0
 20 26  1  0  0  0  0
 22 30  1  0  0  0  0
 23 24  1  0  0  0  0
 23 25  1  0  0  0  0
 23 31  1  0  0  0  0
 27 28  1  0  0  0  0
 27 29  1  0  0  0  0
 30 32  2  0  0  0  0
 30 33  1  0  0  0  0
 30 34  1  0  0  0  0
 31 35  1  0  0  0  0
 35 36  1  0  0  0  0
 35 37  1  0  0  0  0
 35 38  2  0  0  0  0
 36 39  1  0  0  0  0
 39 40  1  0  0  0  0
 39 42  2  0  0  0  0
 39 43  2  0  0  0  0
 40 41  1  0  0  0  0
M  BCL ATM N_TrTrTrPi2 C_TeTeTeTe H_S C_TrTrTrPi C_TrTrTrPi H_S C_TeTeTeTe H_S O_Te2Te2TeTe C_TrTrTrPi N_Tr2TrTrPi N_Tr2TrTrPi C_TeTeTeTe H_S O_Te2Te2TeTe H_S C_TeTeTeTe H_S C_TrTrTrPi C_TrTrTrPi H_S O_Tr2TrTrPi2 C_TeTeTeTe H_S H_S N_Tr2TrTrPi N_TrTrTrPi2 H_S H_S P_TeTeTeTePi O_Tr2TrTrPi2 O_Tr2Tr2TrPi O_Te2Te2Te2Te O_Te2Te2Te2Te P_TeTeTeTePi O_Tr2TrTrPi2 O_Te2Te2TeTe O_Tr2Tr2TrPi S_TeTeTeTePiPi O_Te2Te2TeTe H_S O_Tr2Tr2TrPi O_Tr2Tr2TrPi
M  BCL BND NonConjugatedSingleBond AromaticSingleBond AromaticSingleBond NonConjugatedSingleBond NonConjugatedSingleBondInRing NonConjugatedSingleBondInRing AromaticDoubleBond AromaticSingleBond NonConjugatedSingleBond AromaticDoubleBond NonConjugatedSingleBond NonConjugatedSingleBondInRing NonConjugatedSingleBond NonConjugatedSingleBondInRing AromaticSingleBond AromaticSingleBond AromaticDoubleBond NonConjugatedSingleBond NonConjugatedSingleBondInRing NonConjugatedSingleBond NonConjugatedSingleBond NonConjugatedSingleBond NonConjugatedSingleBond AromaticDoubleBond ConjugatedSingleBond NonConjugatedSingleBond AromaticSingleBond ConjugatedSingleBond NonConjugatedSingleBond NonConjugatedSingleBond NonConjugatedSingleBond NonConjugatedSingleBond NonConjugatedSingleBond ConjugatedDoubleBond ConjugatedSingleBond ConjugatedSingleBond ConjugatedSingleBond ConjugatedSingleBond ConjugatedSingleBond ConjugatedDoubleBond ConjugatedSingleBond ConjugatedSingleBond ConjugatedDoubleBond ConjugatedDoubleBond NonConjugatedSingleBond
M  BCL CHI   2   R   7   R  13   S  17   S  35   R
M  BCL DBI - - - - - - - -
M  END
> <ConfClashScore>
0 

> <ConfOneFourInteractionScore>
-0.96233 

> <ConfScore>
-0.149648 

> <ConfScorePBest>
0.00551946 

> <ConfTolerance>
1.62828 

$$$$
ChEBI.****
  PyMOL2.5          3D                             0

 43 45  0  0  0  0  0  0  0  0999 V2000
    1.0614    0.7717    7.1119 N   0  0  0  1  0  0  0  0  0  0  0  0
    0.5348    0.7035    5.7457 C   0  0  0  1  0  0  0  0  0  0  0  0
    1.0816    1.3758    5.1181 H   0  0  0  1  0  0  0  0  0  0  0  0
    0.8391    1.8082    7.9814 C   0  0  0  1  0  0  0  0  0  0  0  0
    1.9288   -0.0630    7.7472 C   0  0  0  1  0  0  0  0  0  0  0  0
    2.2813   -0.9395    7.3124 H   0  0  0  1  0  0  0  0  0  0  0  0
   -0.9550    1.0811    5.7415 C   0  0  0  1  0  0  0  0  0  0  0  0
   -1.2333    1.5630    6.6554 H   0  0  0  1  0  0  0  0  0  0  0  0
    0.6502   -0.6031    5.2567 O   0  0  0  1  0  0  0  0  0  0  0  0
    1.6049    1.5149    9.1177 C   0  0  0  1  0  0  0  0  0  0  0  0
    0.0513    2.8696    7.8033 N   0  0  0  1  0  0  0  0  0  0  0  0
    2.2850    0.3197    8.9432 N   0  0  0  1  0  0  0  0  0  0  0  0
   -1.6485   -0.2806    5.6010 C   0  0  0  1  0  0  0  0  0  0  0  0
   -2.5689   -0.1873    5.0632 H   0  0  0  1  0  0  0  0  0  0  0  0
   -1.2668    1.9337    4.6387 O   0  0  0  1  0  0  0  0  0  0  0  0
   -1.0759    2.8446    4.8740 H   0  0  0  1  0  0  0  0  0  0  0  0
   -0.6499   -1.1066    4.8231 C   0  0  0  1  0  0  0  0  0  0  0  0
   -0.7792   -0.9649    3.7704 H   0  0  0  1  0  0  0  0  0  0  0  0
    1.5188    2.4401   10.1539 C   0  0  0  1  0  0  0  0  0  0  0  0
    0.0707    3.6691    8.8628 C   0  0  0  1  0  0  0  0  0  0  0  0
   -0.5193    4.5227    8.7930 H   0  0  0  1  0  0  0  0  0  0  0  0
   -1.9013   -0.8587    6.8813 O   0  0  0  1  0  0  0  0  0  0  0  0
   -0.7904   -2.5391    5.1483 C   0  0  0  1  0  0  0  0  0  0  0  0
   -1.8222   -2.8152    5.0849 H   0  0  0  1  0  0  0  0  0  0  0  0
   -0.4351   -2.7111    6.1428 H   0  0  0  1  0  0  0  0  0  0  0  0
    0.7491    3.5246   10.0121 N   0  0  0  1  0  0  0  0  0  0  0  0
    2.1927    2.3005   11.3384 N   0  0  0  1  0  0  0  0  0  0  0  0
    2.0869    2.9719   12.0444 H   0  0  0  1  0  0  0  0  0  0  0  0
    2.7807    1.5294   11.4797 H   0  0  0  1  0  0  0  0  0  0  0  0
   -3.3441   -1.1368    7.6097 P   0  0  0  1  0  0  0  0  0  0  0  0
   -0.0240   -3.3448    4.2224 O   0  0  0  1  0  0  0  0  0  0  0  0
   -4.0853    0.1426    7.6736 O   0  0  0  1  0  0  0  0  0  0  0  0
   -3.0057   -1.5684    9.1340 O   0  5  0  1  0  0  0  0  0  0  0  0
   -4.1138   -2.3471    6.8566 O   0  5  0  1  0  0  0  0  0  0  0  0
   -0.6988   -4.4032    3.2023 P   0  0  0  1  0  0  0  0  0  0  0  0
   -1.6183   -3.4565    2.2767 O   0  0  0  1  0  0  0  0  0  0  0  0
   -1.4800   -5.3824    4.0337 O   0  0  0  0  0  0  0  0  0  0  0  0
    0.3677   -5.0153    2.4330 O   0  0  0  1  0  0  0  0  0  0  0  0
   -1.1079   -2.1255    1.5415 S   0  0  0  1  0  0  0  0  0  0  0  0
   -1.9353   -1.0512    2.0436 O   0  0  0  1  0  0  0  0  0  0  0  0
   -2.7096   -1.4185    2.4762 H   0  0  0  1  0  0  0  0  0  0  0  0
    0.2654   -2.0684    1.9552 O   0  0  0  1  0  0  0  0  0  0  0  0
   -1.2978   -2.3497    0.1310 O   0  0  0  1  0  0  0  0  0  0  0  0
  1  2  1  0  0  0  0
  1  4  1  0  0  0  0
  1  5  1  0  0  0  0
  2  3  1  0  0  0  0
  2  7  1  0  0  0  0
  2  9  1  0  0  0  0
  4 10  2  0  0  0  0
  4 11  1  0  0  0  0
  5  6  1  0  0  0  0
  5 12  2  0  0  0  0
  7  8  1  0  0  0  0
  7 13  1  0  0  0  0
  7 15  1  0  0  0  0
  9 17  1  0  0  0  0
 10 12  1  0  0  0  0
 10 19  1  0  0  0  0
 11 20  2  0  0  0  0
 13 14  1  0  0  0  0
 13 17  1  0  0  0  0
 13 22  1  0  0  0  0
 15 16  1  0  0  0  0
 17 18  1  0  0  0  0
 17 23  1  0  0  0  0
 19 26  2  0  0  0  0
 19 27  1  0  0  0  0
 20 21  1  0  0  0  0
 20 26  1  0  0  0  0
 22 30  1  0  0  0  0
 23 24  1  0  0  0  0
 23 25  1  0  0  0  0
 23 31  1  0  0  0  0
 27 28  1  0  0  0  0
 27 29  1  0  0  0  0
 30 32  2  0  0  0  0
 30 33  1  0  0  0  0
 30 34  1  0  0  0  0
 31 35  1  0  0  0  0
 35 36  1  0  0  0  0
 35 37  1  0  0  0  0
 35 38  2  0  0  0  0
 36 39  1  0  0  0  0
 39 40  1  0  0  0  0
 39 42  2  0  0  0  0
 39 43  2  0  0  0  0
 40 41  1  0  0  0  0
M  BCL ATM N_TrTrTrPi2 C_TeTeTeTe H_S C_TrTrTrPi C_TrTrTrPi H_S C_TeTeTeTe H_S O_Te2Te2TeTe C_TrTrTrPi N_Tr2TrTrPi N_Tr2TrTrPi C_TeTeTeTe H_S O_Te2Te2TeTe H_S C_TeTeTeTe H_S C_TrTrTrPi C_TrTrTrPi H_S O_Tr2TrTrPi2 C_TeTeTeTe H_S H_S N_Tr2TrTrPi N_TrTrTrPi2 H_S H_S P_TeTeTeTePi O_Tr2TrTrPi2 O_Tr2Tr2TrPi O_Te2Te2Te2Te O_Te2Te2Te2Te P_TeTeTeTePi O_Tr2TrTrPi2 O_Te2Te2TeTe O_Tr2Tr2TrPi S_TeTeTeTePiPi O_Te2Te2TeTe H_S O_Tr2Tr2TrPi O_Tr2Tr2TrPi
M  BCL BND NonConjugatedSingleBond AromaticSingleBond AromaticSingleBond NonConjugatedSingleBond NonConjugatedSingleBondInRing NonConjugatedSingleBondInRing AromaticDoubleBond AromaticSingleBond NonConjugatedSingleBond AromaticDoubleBond NonConjugatedSingleBond NonConjugatedSingleBondInRing NonConjugatedSingleBond NonConjugatedSingleBondInRing AromaticSingleBond AromaticSingleBond AromaticDoubleBond NonConjugatedSingleBond NonConjugatedSingleBondInRing NonConjugatedSingleBond NonConjugatedSingleBond NonConjugatedSingleBond NonConjugatedSingleBond AromaticDoubleBond ConjugatedSingleBond NonConjugatedSingleBond AromaticSingleBond ConjugatedSingleBond NonConjugatedSingleBond NonConjugatedSingleBond NonConjugatedSingleBond NonConjugatedSingleBond NonConjugatedSingleBond ConjugatedDoubleBond ConjugatedSingleBond ConjugatedSingleBond ConjugatedSingleBond ConjugatedSingleBond ConjugatedSingleBond ConjugatedDoubleBond ConjugatedSingleBond ConjugatedSingleBond ConjugatedDoubleBond ConjugatedDoubleBond NonConjugatedSingleBond
M  BCL CHI   2   R   7   R  13   S  17   S  35   R
M  BCL DBI - - - - - - - -
M  END
> <ConfClashScore>
0 

> <ConfOneFourInteractionScore>
-0.981627 

> <ConfScore>
-0.146321 

> <ConfScorePBest>
0.00541646 

> <ConfTolerance>
1.87341 

$$$$
ChEBI.****
  PyMOL2.5          3D                             0

 43 45  0  0  0  0  0  0  0  0999 V2000
    1.0546    0.7837    7.0851 N   0  0  0  1  0  0  0  0  0  0  0  0
    0.4634    0.6348    5.7246 C   0  0  0  1  0  0  0  0  0  0  0  0
    0.9329    1.3236    5.0538 H   0  0  0  1  0  0  0  0  0  0  0  0
    0.8494    1.8124    7.9680 C   0  0  0  1  0  0  0  0  0  0  0  0
    1.9095   -0.0724    7.7088 C   0  0  0  1  0  0  0  0  0  0  0  0
    2.2477   -0.9488    7.2625 H   0  0  0  1  0  0  0  0  0  0  0  0
   -1.0461    0.8800    5.7697 C   0  0  0  1  0  0  0  0  0  0  0  0
   -1.4621    0.5960    6.7137 H   0  0  0  1  0  0  0  0  0  0  0  0
    0.6254   -0.7082    5.2546 O   0  0  0  1  0  0  0  0  0  0  0  0
    1.6116    1.4928    9.0996 C   0  0  0  1  0  0  0  0  0  0  0  0
    0.0782    2.8883    7.8043 N   0  0  0  1  0  0  0  0  0  0  0  0
    2.2728    0.2894    8.9092 N   0  0  0  1  0  0  0  0  0  0  0  0
   -1.5224   -0.0352    4.6513 C   0  0  0  1  0  0  0  0  0  0  0  0
   -1.4758    0.4692    3.7089 H   0  0  0  1  0  0  0  0  0  0  0  0
   -1.3636    2.2463    5.5003 O   0  0  0  1  0  0  0  0  0  0  0  0
   -2.3153    2.3672    5.5364 H   0  0  0  1  0  0  0  0  0  0  0  0
   -0.6026   -1.1779    4.6686 C   0  0  0  1  0  0  0  0  0  0  0  0
   -0.4267   -1.5252    3.6719 H   0  0  0  1  0  0  0  0  0  0  0  0
    1.5410    2.4060   10.1475 C   0  0  0  1  0  0  0  0  0  0  0  0
    0.1112    3.6738    8.8738 C   0  0  0  1  0  0  0  0  0  0  0  0
   -0.4654    4.5374    8.8156 H   0  0  0  1  0  0  0  0  0  0  0  0
   -2.8831   -0.4744    4.8989 O   0  0  0  1  0  0  0  0  0  0  0  0
   -1.1672   -2.2737    5.4797 C   0  0  0  1  0  0  0  0  0  0  0  0
   -0.4654   -3.0804    5.5195 H   0  0  0  1  0  0  0  0  0  0  0  0
   -2.0764   -2.6132    5.0290 H   0  0  0  1  0  0  0  0  0  0  0  0
    0.7883    3.5041   10.0204 N   0  0  0  1  0  0  0  0  0  0  0  0
    2.1844    2.3313   11.3864 N   0  0  0  1  0  0  0  0  0  0  0  0
    2.7433    1.5558   11.6023 H   0  0  0  1  0  0  0  0  0  0  0  0
    2.0765    3.0545   12.0389 H   0  0  0  1  0  0  0  0  0  0  0  0
   -4.0752   -0.1704    3.8144 P   0  0  0  1  0  0  0  0  0  0  0  0
   -1.4445   -1.8151    6.8272 O   0  0  0  1  0  0  0  0  0  0  0  0
   -3.6491   -0.0692    2.4007 O   0  0  0  1  0  0  0  0  0  0  0  0
   -4.8402    1.1299    4.4046 O   0  5  0  1  0  0  0  0  0  0  0  0
   -5.0882   -1.3539    4.2587 O   0  5  0  1  0  0  0  0  0  0  0  0
   -2.7113   -2.2377    7.6264 P   0  0  0  1  0  0  0  0  0  0  0  0
   -3.9244   -1.1191    7.3330 O   0  0  0  1  0  0  0  0  0  0  0  0
   -2.4346   -2.1282    9.1289 O   0  0  0  0  0  0  0  0  0  0  0  0
   -3.0796   -3.6020    7.1905 O   0  0  0  1  0  0  0  0  0  0  0  0
   -4.4671    0.3189    7.9632 S   0  0  0  1  0  0  0  0  0  0  0  0
   -5.5320   -0.2587    8.8313 O   0  0  0  1  0  0  0  0  0  0  0  0
   -5.6155    0.2680    9.6295 H   0  0  0  1  0  0  0  0  0  0  0  0
   -3.4293    0.9151    8.5762 O   0  0  0  1  0  0  0  0  0  0  0  0
   -5.1516    0.8833    6.8545 O   0  0  0  1  0  0  0  0  0  0  0  0
  1  2  1  0  0  0  0
  1  4  1  0  0  0  0
  1  5  1  0  0  0  0
  2  3  1  0  0  0  0
  2  7  1  0  0  0  0
  2  9  1  0  0  0  0
  4 10  2  0  0  0  0
  4 11  1  0  0  0  0
  5  6  1  0  0  0  0
  5 12  2  0  0  0  0
  7  8  1  0  0  0  0
  7 13  1  0  0  0  0
  7 15  1  0  0  0  0
  9 17  1  0  0  0  0
 10 12  1  0  0  0  0
 10 19  1  0  0  0  0
 11 20  2  0  0  0  0
 13 14  1  0  0  0  0
 13 17  1  0  0  0  0
 13 22  1  0  0  0  0
 15 16  1  0  0  0  0
 17 18  1  0  0  0  0
 17 23  1  0  0  0  0
 19 26  2  0  0  0  0
 19 27  1  0  0  0  0
 20 21  1  0  0  0  0
 20 26  1  0  0  0  0
 22 30  1  0  0  0  0
 23 24  1  0  0  0  0
 23 25  1  0  0  0  0
 23 31  1  0  0  0  0
 27 28  1  0  0  0  0
 27 29  1  0  0  0  0
 30 32  2  0  0  0  0
 30 33  1  0  0  0  0
 30 34  1  0  0  0  0
 31 35  1  0  0  0  0
 35 36  1  0  0  0  0
 35 37  1  0  0  0  0
 35 38  2  0  0  0  0
 36 39  1  0  0  0  0
 39 40  1  0  0  0  0
 39 42  2  0  0  0  0
 39 43  2  0  0  0  0
 40 41  1  0  0  0  0
M  BCL ATM N_TrTrTrPi2 C_TeTeTeTe H_S C_TrTrTrPi C_TrTrTrPi H_S C_TeTeTeTe H_S O_Te2Te2TeTe C_TrTrTrPi N_Tr2TrTrPi N_Tr2TrTrPi C_TeTeTeTe H_S O_Te2Te2TeTe H_S C_TeTeTeTe H_S C_TrTrTrPi C_TrTrTrPi H_S O_Tr2TrTrPi2 C_TeTeTeTe H_S H_S N_Tr2TrTrPi N_TrTrTrPi2 H_S H_S P_TeTeTeTePi O_Tr2TrTrPi2 O_Tr2Tr2TrPi O_Te2Te2Te2Te O_Te2Te2Te2Te P_TeTeTeTePi O_Tr2TrTrPi2 O_Te2Te2TeTe O_Tr2Tr2TrPi S_TeTeTeTePiPi O_Te2Te2TeTe H_S O_Tr2Tr2TrPi O_Tr2Tr2TrPi
M  BCL BND NonConjugatedSingleBond AromaticSingleBond AromaticSingleBond NonConjugatedSingleBond NonConjugatedSingleBondInRing NonConjugatedSingleBondInRing AromaticDoubleBond AromaticSingleBond NonConjugatedSingleBond AromaticDoubleBond NonConjugatedSingleBond NonConjugatedSingleBondInRing NonConjugatedSingleBond NonConjugatedSingleBondInRing AromaticSingleBond AromaticSingleBond AromaticDoubleBond NonConjugatedSingleBond NonConjugatedSingleBondInRing NonConjugatedSingleBond NonConjugatedSingleBond NonConjugatedSingleBond NonConjugatedSingleBond AromaticDoubleBond ConjugatedSingleBond NonConjugatedSingleBond AromaticSingleBond ConjugatedSingleBond NonConjugatedSingleBond NonConjugatedSingleBond NonConjugatedSingleBond NonConjugatedSingleBond NonConjugatedSingleBond ConjugatedDoubleBond ConjugatedSingleBond ConjugatedSingleBond ConjugatedSingleBond ConjugatedSingleBond ConjugatedSingleBond ConjugatedDoubleBond ConjugatedSingleBond ConjugatedSingleBond ConjugatedDoubleBond ConjugatedDoubleBond NonConjugatedSingleBond
M  BCL CHI   2   R   7   R  13   S  17   S  35   R
M  BCL DBI - - - - - - - -
M  END
> <ConfClashScore>
0 

> <ConfOneFourInteractionScore>
-0.988682 

> <ConfScore>
-0.112898 

> <ConfScorePBest>
0.00531345 

> <ConfTolerance>
1.74171 

$$$$
ChEBI.****
  PyMOL2.5          3D                             0

 43 45  0  0  0  0  0  0  0  0999 V2000
    1.0849    0.7894    7.0840 N   0  0  0  1  0  0  0  0  0  0  0  0
    0.4196    0.6221    5.7886 C   0  0  0  1  0  0  0  0  0  0  0  0
   -0.1007   -0.3127    5.7724 H   0  0  0  1  0  0  0  0  0  0  0  0
    0.8606    1.8167    7.9638 C   0  0  0  1  0  0  0  0  0  0  0  0
    1.9436   -0.0566    7.7162 C   0  0  0  1  0  0  0  0  0  0  0  0
    2.2954   -0.9297    7.2739 H   0  0  0  1  0  0  0  0  0  0  0  0
    1.4368    0.6984    4.6409 C   0  0  0  1  0  0  0  0  0  0  0  0
    2.2222    1.3892    4.8668 H   0  0  0  1  0  0  0  0  0  0  0  0
   -0.4607    1.6847    5.5416 O   0  0  0  1  0  0  0  0  0  0  0  0
    1.6163    1.5066    9.1025 C   0  0  0  1  0  0  0  0  0  0  0  0
    0.0790    2.8838    7.7922 N   0  0  0  1  0  0  0  0  0  0  0  0
    2.2923    0.3104    8.9193 N   0  0  0  1  0  0  0  0  0  0  0  0
    0.5991    1.1867    3.4883 C   0  0  0  1  0  0  0  0  0  0  0  0
    0.1064    0.3721    2.9999 H   0  0  0  1  0  0  0  0  0  0  0  0
    1.9968   -0.5858    4.3628 O   0  0  0  1  0  0  0  0  0  0  0  0
    2.1765   -0.6603    3.4227 H   0  0  0  1  0  0  0  0  0  0  0  0
   -0.4139    2.1164    4.1629 C   0  0  0  1  0  0  0  0  0  0  0  0
   -1.3763    2.0183    3.7058 H   0  0  0  1  0  0  0  0  0  0  0  0
    1.5264    2.4201   10.1487 C   0  0  0  1  0  0  0  0  0  0  0  0
    0.0939    3.6707    8.8610 C   0  0  0  1  0  0  0  0  0  0  0  0
   -0.4916    4.5278    8.7967 H   0  0  0  1  0  0  0  0  0  0  0  0
    1.4091    1.9101    2.5259 O   0  0  0  1  0  0  0  0  0  0  0  0
    0.0379    3.5370    4.0736 C   0  0  0  1  0  0  0  0  0  0  0  0
   -0.3720    4.1014    4.8849 H   0  0  0  1  0  0  0  0  0  0  0  0
   -0.2808    3.9629    3.1452 H   0  0  0  1  0  0  0  0  0  0  0  0
    0.7628    3.5097   10.0137 N   0  0  0  1  0  0  0  0  0  0  0  0
    2.1753    2.3153   11.3742 N   0  0  0  1  0  0  0  0  0  0  0  0
    2.0931    3.0342   12.0352 H   0  0  0  1  0  0  0  0  0  0  0  0
    2.7147    1.5226   11.5769 H   0  0  0  1  0  0  0  0  0  0  0  0
    2.1072    1.1331    1.2616 P   0  0  0  1  0  0  0  0  0  0  0  0
    1.4829    3.5440    4.1488 O   0  0  0  1  0  0  0  0  0  0  0  0
    1.1748    0.1247    0.7100 O   0  0  0  1  0  0  0  0  0  0  0  0
    3.5628    0.5590    1.6814 O   0  5  0  1  0  0  0  0  0  0  0  0
    2.2612    2.3700    0.2268 O   0  5  0  1  0  0  0  0  0  0  0  0
    2.3203    4.9025    3.8850 P   0  0  0  1  0  0  0  0  0  0  0  0
    1.9617    5.8177    5.2425 O   0  0  0  1  0  0  0  0  0  0  0  0
    1.8092    5.4950    2.6013 O   0  0  0  0  0  0  0  0  0  0  0  0
    3.7272    4.5519    3.8435 O   0  0  0  1  0  0  0  0  0  0  0  0
    1.3183    7.2557    5.5930 S   0  0  0  1  0  0  0  0  0  0  0  0
   -0.0937    7.0243    5.8265 O   0  0  0  1  0  0  0  0  0  0  0  0
   -0.2448    6.0878    5.9742 H   0  0  0  1  0  0  0  0  0  0  0  0
    2.0206    7.7467    6.7280 O   0  0  0  1  0  0  0  0  0  0  0  0
    1.5960    7.8829    4.3489 O   0  0  0  1  0  0  0  0  0  0  0  0
  1  2  1  0  0  0  0
  1  4  1  0  0  0  0
  1  5  1  0  0  0  0
  2  3  1  0  0  0  0
  2  7  1  0  0  0  0
  2  9  1  0  0  0  0
  4 10  2  0  0  0  0
  4 11  1  0  0  0  0
  5  6  1  0  0  0  0
  5 12  2  0  0  0  0
  7  8  1  0  0  0  0
  7 13  1  0  0  0  0
  7 15  1  0  0  0  0
  9 17  1  0  0  0  0
 10 12  1  0  0  0  0
 10 19  1  0  0  0  0
 11 20  2  0  0  0  0
 13 14  1  0  0  0  0
 13 17  1  0  0  0  0
 13 22  1  0  0  0  0
 15 16  1  0  0  0  0
 17 18  1  0  0  0  0
 17 23  1  0  0  0  0
 19 26  2  0  0  0  0
 19 27  1  0  0  0  0
 20 21  1  0  0  0  0
 20 26  1  0  0  0  0
 22 30  1  0  0  0  0
 23 24  1  0  0  0  0
 23 25  1  0  0  0  0
 23 31  1  0  0  0  0
 27 28  1  0  0  0  0
 27 29  1  0  0  0  0
 30 32  2  0  0  0  0
 30 33  1  0  0  0  0
 30 34  1  0  0  0  0
 31 35  1  0  0  0  0
 35 36  1  0  0  0  0
 35 37  1  0  0  0  0
 35 38  2  0  0  0  0
 36 39  1  0  0  0  0
 39 40  1  0  0  0  0
 39 42  2  0  0  0  0
 39 43  2  0  0  0  0
 40 41  1  0  0  0  0
M  BCL ATM N_TrTrTrPi2 C_TeTeTeTe H_S C_TrTrTrPi C_TrTrTrPi H_S C_TeTeTeTe H_S O_Te2Te2TeTe C_TrTrTrPi N_Tr2TrTrPi N_Tr2TrTrPi C_TeTeTeTe H_S O_Te2Te2TeTe H_S C_TeTeTeTe H_S C_TrTrTrPi C_TrTrTrPi H_S O_Tr2TrTrPi2 C_TeTeTeTe H_S H_S N_Tr2TrTrPi N_TrTrTrPi2 H_S H_S P_TeTeTeTePi O_Tr2TrTrPi2 O_Tr2Tr2TrPi O_Te2Te2Te2Te O_Te2Te2Te2Te P_TeTeTeTePi O_Tr2TrTrPi2 O_Te2Te2TeTe O_Tr2Tr2TrPi S_TeTeTeTePiPi O_Te2Te2TeTe H_S O_Tr2Tr2TrPi O_Tr2Tr2TrPi
M  BCL BND NonConjugatedSingleBond AromaticSingleBond AromaticSingleBond NonConjugatedSingleBond NonConjugatedSingleBondInRing NonConjugatedSingleBondInRing AromaticDoubleBond AromaticSingleBond NonConjugatedSingleBond AromaticDoubleBond NonConjugatedSingleBond NonConjugatedSingleBondInRing NonConjugatedSingleBond NonConjugatedSingleBondInRing AromaticSingleBond AromaticSingleBond AromaticDoubleBond NonConjugatedSingleBond NonConjugatedSingleBondInRing NonConjugatedSingleBond NonConjugatedSingleBond NonConjugatedSingleBond NonConjugatedSingleBond AromaticDoubleBond ConjugatedSingleBond NonConjugatedSingleBond AromaticSingleBond ConjugatedSingleBond NonConjugatedSingleBond NonConjugatedSingleBond NonConjugatedSingleBond NonConjugatedSingleBond NonConjugatedSingleBond ConjugatedDoubleBond ConjugatedSingleBond ConjugatedSingleBond ConjugatedSingleBond ConjugatedSingleBond ConjugatedSingleBond ConjugatedDoubleBond ConjugatedSingleBond ConjugatedSingleBond ConjugatedDoubleBond ConjugatedDoubleBond NonConjugatedSingleBond
M  BCL CHI   2   R   7   R  13   S  17   S  35   R
M  BCL DBI - - - - - - - -
M  END
> <ConfClashScore>
0 

> <ConfOneFourInteractionScore>
-0.976949 

> <ConfScore>
-0.111941 

> <ConfScorePBest>
0.00521045 

> <ConfTolerance>
1.8837 

$$$$
ChEBI.****
  PyMOL2.5          3D                             0

 43 45  0  0  0  0  0  0  0  0999 V2000
    1.0389    0.7662    7.1042 N   0  0  0  1  0  0  0  0  0  0  0  0
    0.5850    0.6936    5.7143 C   0  0  0  1  0  0  0  0  0  0  0  0
    0.9064    1.5678    5.1876 H   0  0  0  1  0  0  0  0  0  0  0  0
    0.8294    1.8014    7.9784 C   0  0  0  1  0  0  0  0  0  0  0  0
    1.9068   -0.0751    7.7301 C   0  0  0  1  0  0  0  0  0  0  0  0
    2.2509   -0.9524    7.2900 H   0  0  0  1  0  0  0  0  0  0  0  0
   -0.9355    0.5558    5.6513 C   0  0  0  1  0  0  0  0  0  0  0  0
   -1.3140    0.0172    6.4948 H   0  0  0  1  0  0  0  0  0  0  0  0
    1.0934   -0.5071    5.0718 O   0  0  0  1  0  0  0  0  0  0  0  0
    1.6027    1.5005    9.1077 C   0  0  0  1  0  0  0  0  0  0  0  0
    0.0462    2.8677    7.8097 N   0  0  0  1  0  0  0  0  0  0  0  0
    2.2747    0.3021    8.9244 N   0  0  0  1  0  0  0  0  0  0  0  0
   -1.1156   -0.2245    4.3747 C   0  0  0  1  0  0  0  0  0  0  0  0
   -1.0504    0.4138    3.5184 H   0  0  0  1  0  0  0  0  0  0  0  0
   -1.5719    1.8324    5.5761 O   0  0  0  1  0  0  0  0  0  0  0  0
   -1.2289    2.3174    4.8220 H   0  0  0  1  0  0  0  0  0  0  0  0
    0.0472   -1.1990    4.4232 C   0  0  0  1  0  0  0  0  0  0  0  0
    0.3417   -1.4790    3.4333 H   0  0  0  1  0  0  0  0  0  0  0  0
    1.5300    2.4232   10.1471 C   0  0  0  1  0  0  0  0  0  0  0  0
    0.0786    3.6640    8.8712 C   0  0  0  1  0  0  0  0  0  0  0  0
   -0.5072    4.5210    8.8086 H   0  0  0  1  0  0  0  0  0  0  0  0
   -2.3869   -0.9241    4.3618 O   0  0  0  1  0  0  0  0  0  0  0  0
   -0.3235   -2.4061    5.1868 C   0  0  0  1  0  0  0  0  0  0  0  0
    0.1687   -3.2562    4.7627 H   0  0  0  1  0  0  0  0  0  0  0  0
   -1.3833   -2.5442    5.1348 H   0  0  0  1  0  0  0  0  0  0  0  0
    0.7653    3.5124   10.0146 N   0  0  0  1  0  0  0  0  0  0  0  0
    2.1980    2.3285   11.3632 N   0  0  0  1  0  0  0  0  0  0  0  0
    2.1218    3.0503   12.0216 H   0  0  0  1  0  0  0  0  0  0  0  0
    2.7449    1.5399   11.5617 H   0  0  0  1  0  0  0  0  0  0  0  0
   -3.0537   -1.4301    2.9516 P   0  0  0  1  0  0  0  0  0  0  0  0
    0.0725   -2.2683    6.5751 O   0  0  0  1  0  0  0  0  0  0  0  0
   -2.0471   -1.9318    1.9895 O   0  0  0  1  0  0  0  0  0  0  0  0
   -4.0612   -0.3611    2.2686 O   0  5  0  1  0  0  0  0  0  0  0  0
   -4.0625   -2.6480    3.3031 O   0  5  0  1  0  0  0  0  0  0  0  0
   -0.3176   -3.3830    7.6534 P   0  0  0  1  0  0  0  0  0  0  0  0
    0.1599   -4.7482    6.8066 O   0  0  0  1  0  0  0  0  0  0  0  0
   -1.8011   -3.5077    7.8072 O   0  0  0  0  0  0  0  0  0  0  0  0
    0.4550   -3.1973    8.9178 O   0  0  0  1  0  0  0  0  0  0  0  0
   -0.5375   -6.1817    6.2001 S   0  0  0  1  0  0  0  0  0  0  0  0
   -0.2627   -6.0014    4.8032 O   0  0  0  1  0  0  0  0  0  0  0  0
    0.6868   -5.9969    4.6614 H   0  0  0  1  0  0  0  0  0  0  0  0
    0.3001   -7.0528    6.8720 O   0  0  0  1  0  0  0  0  0  0  0  0
   -1.8660   -6.1389    6.5297 O   0  0  0  1  0  0  0  0  0  0  0  0
  1  2  1  0  0  0  0
  1  4  1  0  0  0  0
  1  5  1  0  0  0  0
  2  3  1  0  0  0  0
  2  7  1  0  0  0  0
  2  9  1  0  0  0  0
  4 10  2  0  0  0  0
  4 11  1  0  0  0  0
  5  6  1  0  0  0  0
  5 12  2  0  0  0  0
  7  8  1  0  0  0  0
  7 13  1  0  0  0  0
  7 15  1  0  0  0  0
  9 17  1  0  0  0  0
 10 12  1  0  0  0  0
 10 19  1  0  0  0  0
 11 20  2  0  0  0  0
 13 14  1  0  0  0  0
 13 17  1  0  0  0  0
 13 22  1  0  0  0  0
 15 16  1  0  0  0  0
 17 18  1  0  0  0  0
 17 23  1  0  0  0  0
 19 26  2  0  0  0  0
 19 27  1  0  0  0  0
 20 21  1  0  0  0  0
 20 26  1  0  0  0  0
 22 30  1  0  0  0  0
 23 24  1  0  0  0  0
 23 25  1  0  0  0  0
 23 31  1  0  0  0  0
 27 28  1  0  0  0  0
 27 29  1  0  0  0  0
 30 32  2  0  0  0  0
 30 33  1  0  0  0  0
 30 34  1  0  0  0  0
 31 35  1  0  0  0  0
 35 36  1  0  0  0  0
 35 37  1  0  0  0  0
 35 38  2  0  0  0  0
 36 39  1  0  0  0  0
 39 40  1  0  0  0  0
 39 42  2  0  0  0  0
 39 43  2  0  0  0  0
 40 41  1  0  0  0  0
M  BCL ATM N_TrTrTrPi2 C_TeTeTeTe H_S C_TrTrTrPi C_TrTrTrPi H_S C_TeTeTeTe H_S O_Te2Te2TeTe C_TrTrTrPi N_Tr2TrTrPi N_Tr2TrTrPi C_TeTeTeTe H_S O_Te2Te2TeTe H_S C_TeTeTeTe H_S C_TrTrTrPi C_TrTrTrPi H_S O_Tr2TrTrPi2 C_TeTeTeTe H_S H_S N_Tr2TrTrPi N_TrTrTrPi2 H_S H_S P_TeTeTeTePi O_Tr2TrTrPi2 O_Tr2Tr2TrPi O_Te2Te2Te2Te O_Te2Te2Te2Te P_TeTeTeTePi O_Tr2TrTrPi2 O_Te2Te2TeTe O_Tr2Tr2TrPi S_TeTeTeTePiPi O_Te2Te2TeTe H_S O_Tr2Tr2TrPi O_Tr2Tr2TrPi
M  BCL BND NonConjugatedSingleBond AromaticSingleBond AromaticSingleBond NonConjugatedSingleBond NonConjugatedSingleBondInRing NonConjugatedSingleBondInRing AromaticDoubleBond AromaticSingleBond NonConjugatedSingleBond AromaticDoubleBond NonConjugatedSingleBond NonConjugatedSingleBondInRing NonConjugatedSingleBond NonConjugatedSingleBondInRing AromaticSingleBond AromaticSingleBond AromaticDoubleBond NonConjugatedSingleBond NonConjugatedSingleBondInRing NonConjugatedSingleBond NonConjugatedSingleBond NonConjugatedSingleBond NonConjugatedSingleBond AromaticDoubleBond ConjugatedSingleBond NonConjugatedSingleBond AromaticSingleBond ConjugatedSingleBond NonConjugatedSingleBond NonConjugatedSingleBond NonConjugatedSingleBond NonConjugatedSingleBond NonConjugatedSingleBond ConjugatedDoubleBond ConjugatedSingleBond ConjugatedSingleBond ConjugatedSingleBond ConjugatedSingleBond ConjugatedSingleBond ConjugatedDoubleBond ConjugatedSingleBond ConjugatedSingleBond ConjugatedDoubleBond ConjugatedDoubleBond NonConjugatedSingleBond
M  BCL CHI   2   R   7   R  13   S  17   S  35   R
M  BCL DBI - - - - - - - -
M  END
> <ConfClashScore>
0 

> <ConfOneFourInteractionScore>
-0.982454 

> <ConfScore>
-0.0866079 

> <ConfScorePBest>
0.00510745 

> <ConfTolerance>
2.21217 

$$$$
ChEBI.****
  PyMOL2.5          3D                             0

 43 45  0  0  0  0  0  0  0  0999 V2000
    1.0680    0.7950    7.1037 N   0  0  0  1  0  0  0  0  0  0  0  0
    0.5143    0.5811    5.7361 C   0  0  0  1  0  0  0  0  0  0  0  0
    1.1623   -0.0689    5.1860 H   0  0  0  1  0  0  0  0  0  0  0  0
    0.8447    1.8261    7.9793 C   0  0  0  1  0  0  0  0  0  0  0  0
    1.9313   -0.0458    7.7366 C   0  0  0  1  0  0  0  0  0  0  0  0
    2.2835   -0.9202    7.2973 H   0  0  0  1  0  0  0  0  0  0  0  0
    0.3778    1.8965    5.0236 C   0  0  0  1  0  0  0  0  0  0  0  0
    0.5323    2.7094    5.7020 H   0  0  0  1  0  0  0  0  0  0  0  0
   -0.7884    0.0154    5.8196 O   0  0  0  1  0  0  0  0  0  0  0  0
    1.6057    1.5236    9.1165 C   0  0  0  1  0  0  0  0  0  0  0  0
    0.0599    2.8904    7.8054 N   0  0  0  1  0  0  0  0  0  0  0  0
    2.2839    0.3281    8.9365 N   0  0  0  1  0  0  0  0  0  0  0  0
   -1.0355    1.9084    4.4946 C   0  0  0  1  0  0  0  0  0  0  0  0
   -1.0502    2.1796    3.4596 H   0  0  0  1  0  0  0  0  0  0  0  0
    1.3163    1.9860    3.9506 O   0  0  0  1  0  0  0  0  0  0  0  0
    1.9365    1.2553    4.0055 H   0  0  0  1  0  0  0  0  0  0  0  0
   -1.5114    0.5059    4.6802 C   0  0  0  1  0  0  0  0  0  0  0  0
   -1.2924   -0.0830    3.8141 H   0  0  0  1  0  0  0  0  0  0  0  0
    1.5177    2.4420   10.1584 C   0  0  0  1  0  0  0  0  0  0  0  0
    0.0771    3.6827    8.8703 C   0  0  0  1  0  0  0  0  0  0  0  0
   -0.5108    4.5381    8.8040 H   0  0  0  1  0  0  0  0  0  0  0  0
   -1.8589    2.8344    5.2498 O   0  0  0  1  0  0  0  0  0  0  0  0
   -2.9918    0.4808    4.9430 C   0  0  0  1  0  0  0  0  0  0  0  0
   -3.2297    1.0819    5.7956 H   0  0  0  1  0  0  0  0  0  0  0  0
   -3.3244   -0.5225    5.1093 H   0  0  0  1  0  0  0  0  0  0  0  0
    0.7509    3.5291   10.0211 N   0  0  0  1  0  0  0  0  0  0  0  0
    2.1870    2.2931   11.3445 N   0  0  0  1  0  0  0  0  0  0  0  0
    2.0956    2.9702   12.0471 H   0  0  0  1  0  0  0  0  0  0  0  0
    2.7573    1.5096   11.4903 H   0  0  0  1  0  0  0  0  0  0  0  0
   -1.5150    4.4378    5.2742 P   0  0  0  1  0  0  0  0  0  0  0  0
   -3.6039    1.0224    3.7616 O   0  0  0  1  0  0  0  0  0  0  0  0
   -1.6448    5.0688    6.6067 O   0  0  0  1  0  0  0  0  0  0  0  0
   -2.2921    5.2726    4.1237 O   0  5  0  1  0  0  0  0  0  0  0  0
    0.0543    4.4718    4.8737 O   0  5  0  1  0  0  0  0  0  0  0  0
   -5.2036    1.0655    3.4664 P   0  0  0  1  0  0  0  0  0  0  0  0
   -5.6158   -0.4827    3.2509 O   0  0  0  1  0  0  0  0  0  0  0  0
   -5.5020    1.7353    2.1762 O   0  0  0  0  0  0  0  0  0  0  0  0
   -5.7658    1.5976    4.6941 O   0  0  0  1  0  0  0  0  0  0  0  0
   -6.6114   -1.3107    4.2141 S   0  0  0  1  0  0  0  0  0  0  0  0
   -5.8078   -1.7862    5.3162 O   0  0  0  1  0  0  0  0  0  0  0  0
   -5.0652   -1.1929    5.4507 H   0  0  0  1  0  0  0  0  0  0  0  0
   -7.6520   -0.4050    4.5987 O   0  0  0  1  0  0  0  0  0  0  0  0
   -6.9574   -2.3202    3.2855 O   0  0  0  1  0  0  0  0  0  0  0  0
  1  2  1  0  0  0  0
  1  4  1  0  0  0  0
  1  5  1  0  0  0  0
  2  3  1  0  0  0  0
  2  7  1  0  0  0  0
  2  9  1  0  0  0  0
  4 10  2  0  0  0  0
  4 11  1  0  0  0  0
  5  6  1  0  0  0  0
  5 12  2  0  0  0  0
  7  8  1  0  0  0  0
  7 13  1  0  0  0  0
  7 15  1  0  0  0  0
  9 17  1  0  0  0  0
 10 12  1  0  0  0  0
 10 19  1  0  0  0  0
 11 20  2  0  0  0  0
 13 14  1  0  0  0  0
 13 17  1  0  0  0  0
 13 22  1  0  0  0  0
 15 16  1  0  0  0  0
 17 18  1  0  0  0  0
 17 23  1  0  0  0  0
 19 26  2  0  0  0  0
 19 27  1  0  0  0  0
 20 21  1  0  0  0  0
 20 26  1  0  0  0  0
 22 30  1  0  0  0  0
 23 24  1  0  0  0  0
 23 25  1  0  0  0  0
 23 31  1  0  0  0  0
 27 28  1  0  0  0  0
 27 29  1  0  0  0  0
 30 32  2  0  0  0  0
 30 33  1  0  0  0  0
 30 34  1  0  0  0  0
 31 35  1  0  0  0  0
 35 36  1  0  0  0  0
 35 37  1  0  0  0  0
 35 38  2  0  0  0  0
 36 39  1  0  0  0  0
 39 40  1  0  0  0  0
 39 42  2  0  0  0  0
 39 43  2  0  0  0  0
 40 41  1  0  0  0  0
M  BCL ATM N_TrTrTrPi2 C_TeTeTeTe H_S C_TrTrTrPi C_TrTrTrPi H_S C_TeTeTeTe H_S O_Te2Te2TeTe C_TrTrTrPi N_Tr2TrTrPi N_Tr2TrTrPi C_TeTeTeTe H_S O_Te2Te2TeTe H_S C_TeTeTeTe H_S C_TrTrTrPi C_TrTrTrPi H_S O_Tr2TrTrPi2 C_TeTeTeTe H_S H_S N_Tr2TrTrPi N_TrTrTrPi2 H_S H_S P_TeTeTeTePi O_Tr2TrTrPi2 O_Tr2Tr2TrPi O_Te2Te2Te2Te O_Te2Te2Te2Te P_TeTeTeTePi O_Tr2TrTrPi2 O_Te2Te2TeTe O_Tr2Tr2TrPi S_TeTeTeTePiPi O_Te2Te2TeTe H_S O_Tr2Tr2TrPi O_Tr2Tr2TrPi
M  BCL BND NonConjugatedSingleBond AromaticSingleBond AromaticSingleBond NonConjugatedSingleBond NonConjugatedSingleBondInRing NonConjugatedSingleBondInRing AromaticDoubleBond AromaticSingleBond NonConjugatedSingleBond AromaticDoubleBond NonConjugatedSingleBond NonConjugatedSingleBondInRing NonConjugatedSingleBond NonConjugatedSingleBondInRing AromaticSingleBond AromaticSingleBond AromaticDoubleBond NonConjugatedSingleBond NonConjugatedSingleBondInRing NonConjugatedSingleBond NonConjugatedSingleBond NonConjugatedSingleBond NonConjugatedSingleBond AromaticDoubleBond ConjugatedSingleBond NonConjugatedSingleBond AromaticSingleBond ConjugatedSingleBond NonConjugatedSingleBond NonConjugatedSingleBond NonConjugatedSingleBond NonConjugatedSingleBond NonConjugatedSingleBond ConjugatedDoubleBond ConjugatedSingleBond ConjugatedSingleBond ConjugatedSingleBond ConjugatedSingleBond ConjugatedSingleBond ConjugatedDoubleBond ConjugatedSingleBond ConjugatedSingleBond ConjugatedDoubleBond ConjugatedDoubleBond NonConjugatedSingleBond
M  BCL CHI   2   R   7   R  13   S  17   S  35   R
M  BCL DBI - - - - - - - -
M  END
> <ConfClashScore>
0 

> <ConfOneFourInteractionScore>
-0.979564 

> <ConfScore>
0.0357766 

> <ConfScorePBest>
0.00500445 

> <ConfTolerance>
2.20349 

$$$$
ChEBI.****
  PyMOL2.5          3D                             0

 43 45  0  0  0  0  0  0  0  0999 V2000
    1.0417    0.7753    7.0931 N   0  0  0  1  0  0  0  0  0  0  0  0
    0.4500    0.6264    5.7327 C   0  0  0  1  0  0  0  0  0  0  0  0
   -0.0244    1.5420    5.4474 H   0  0  0  1  0  0  0  0  0  0  0  0
    0.8506    1.8126    7.9690 C   0  0  0  1  0  0  0  0  0  0  0  0
    1.8832   -0.0892    7.7233 C   0  0  0  1  0  0  0  0  0  0  0  0
    2.2091   -0.9733    7.2831 H   0  0  0  1  0  0  0  0  0  0  0  0
   -0.5633   -0.5290    5.7143 C   0  0  0  1  0  0  0  0  0  0  0  0
   -1.0550   -0.6265    6.6596 H   0  0  0  1  0  0  0  0  0  0  0  0
    1.4401    0.2826    4.8068 O   0  0  0  1  0  0  0  0  0  0  0  0
    1.6067    1.4890    9.1037 C   0  0  0  1  0  0  0  0  0  0  0  0
    0.0954    2.8985    7.7975 N   0  0  0  1  0  0  0  0  0  0  0  0
    2.2503    0.2749    8.9218 N   0  0  0  1  0  0  0  0  0  0  0  0
    0.3138   -1.7346    5.4259 C   0  0  0  1  0  0  0  0  0  0  0  0
   -0.2272   -2.4849    4.8881 H   0  0  0  1  0  0  0  0  0  0  0  0
   -1.5380   -0.3432    4.6868 O   0  0  0  1  0  0  0  0  0  0  0  0
   -1.1702    0.2077    3.9920 H   0  0  0  1  0  0  0  0  0  0  0  0
    1.4472   -1.1344    4.5579 C   0  0  0  1  0  0  0  0  0  0  0  0
    1.2630   -1.3293    3.5220 H   0  0  0  1  0  0  0  0  0  0  0  0
    1.5482    2.4098   10.1456 C   0  0  0  1  0  0  0  0  0  0  0  0
    0.1387    3.6903    8.8620 C   0  0  0  1  0  0  0  0  0  0  0  0
   -0.4252    4.5618    8.7975 H   0  0  0  1  0  0  0  0  0  0  0  0
    0.8418   -2.3045    6.6560 O   0  0  0  1  0  0  0  0  0  0  0  0
    2.7635   -1.7212    4.9490 C   0  0  0  1  0  0  0  0  0  0  0  0
    2.9166   -1.6036    6.0015 H   0  0  0  1  0  0  0  0  0  0  0  0
    3.5528   -1.2328    4.4166 H   0  0  0  1  0  0  0  0  0  0  0  0
    0.8119    3.5181   10.0105 N   0  0  0  1  0  0  0  0  0  0  0  0
    2.1855    2.3341   11.3793 N   0  0  0  1  0  0  0  0  0  0  0  0
    3.0283    1.8415   11.4660 H   0  0  0  1  0  0  0  0  0  0  0  0
    1.7920    2.7733   12.1620 H   0  0  0  1  0  0  0  0  0  0  0  0
    1.2560   -3.8891    6.7385 P   0  0  0  1  0  0  0  0  0  0  0  0
    2.7362   -3.1274    4.6090 O   0  0  0  1  0  0  0  0  0  0  0  0
    0.9800   -4.5948    5.4671 O   0  0  0  1  0  0  0  0  0  0  0  0
    0.3620   -4.4495    7.9678 O   0  5  0  1  0  0  0  0  0  0  0  0
    2.8289   -3.8629    7.1255 O   0  5  0  1  0  0  0  0  0  0  0  0
    4.0199   -3.9323    4.1494 P   0  0  0  1  0  0  0  0  0  0  0  0
    3.6001   -5.5544    4.1886 O   0  0  0  1  0  0  0  0  0  0  0  0
    5.1394   -3.5209    5.0211 O   0  0  0  0  0  0  0  0  0  0  0  0
    4.3252   -3.6559    2.7171 O   0  0  0  1  0  0  0  0  0  0  0  0
    3.9404   -6.8652    5.0589 S   0  0  0  1  0  0  0  0  0  0  0  0
    5.3864   -6.8274    5.0749 O   0  0  0  1  0  0  0  0  0  0  0  0
    5.6868   -6.3950    5.8777 H   0  0  0  1  0  0  0  0  0  0  0  0
    3.3512   -6.6539    6.3469 O   0  0  0  1  0  0  0  0  0  0  0  0
    3.3965   -7.9691    4.3406 O   0  0  0  1  0  0  0  0  0  0  0  0
  1  2  1  0  0  0  0
  1  4  1  0  0  0  0
  1  5  1  0  0  0  0
  2  3  1  0  0  0  0
  2  7  1  0  0  0  0
  2  9  1  0  0  0  0
  4 10  2  0  0  0  0
  4 11  1  0  0  0  0
  5  6  1  0  0  0  0
  5 12  2  0  0  0  0
  7  8  1  0  0  0  0
  7 13  1  0  0  0  0
  7 15  1  0  0  0  0
  9 17  1  0  0  0  0
 10 12  1  0  0  0  0
 10 19  1  0  0  0  0
 11 20  2  0  0  0  0
 13 14  1  0  0  0  0
 13 17  1  0  0  0  0
 13 22  1  0  0  0  0
 15 16  1  0  0  0  0
 17 18  1  0  0  0  0
 17 23  1  0  0  0  0
 19 26  2  0  0  0  0
 19 27  1  0  0  0  0
 20 21  1  0  0  0  0
 20 26  1  0  0  0  0
 22 30  1  0  0  0  0
 23 24  1  0  0  0  0
 23 25  1  0  0  0  0
 23 31  1  0  0  0  0
 27 28  1  0  0  0  0
 27 29  1  0  0  0  0
 30 32  2  0  0  0  0
 30 33  1  0  0  0  0
 30 34  1  0  0  0  0
 31 35  1  0  0  0  0
 35 36  1  0  0  0  0
 35 37  1  0  0  0  0
 35 38  2  0  0  0  0
 36 39  1  0  0  0  0
 39 40  1  0  0  0  0
 39 42  2  0  0  0  0
 39 43  2  0  0  0  0
 40 41  1  0  0  0  0
M  BCL ATM N_TrTrTrPi2 C_TeTeTeTe H_S C_TrTrTrPi C_TrTrTrPi H_S C_TeTeTeTe H_S O_Te2Te2TeTe C_TrTrTrPi N_Tr2TrTrPi N_Tr2TrTrPi C_TeTeTeTe H_S O_Te2Te2TeTe H_S C_TeTeTeTe H_S C_TrTrTrPi C_TrTrTrPi H_S O_Tr2TrTrPi2 C_TeTeTeTe H_S H_S N_Tr2TrTrPi N_TrTrTrPi2 H_S H_S P_TeTeTeTePi O_Tr2TrTrPi2 O_Tr2Tr2TrPi O_Te2Te2Te2Te O_Te2Te2Te2Te P_TeTeTeTePi O_Tr2TrTrPi2 O_Te2Te2TeTe O_Tr2Tr2TrPi S_TeTeTeTePiPi O_Te2Te2TeTe H_S O_Tr2Tr2TrPi O_Tr2Tr2TrPi
M  BCL BND NonConjugatedSingleBond AromaticSingleBond AromaticSingleBond NonConjugatedSingleBond NonConjugatedSingleBondInRing NonConjugatedSingleBondInRing AromaticDoubleBond AromaticSingleBond NonConjugatedSingleBond AromaticDoubleBond NonConjugatedSingleBond NonConjugatedSingleBondInRing NonConjugatedSingleBond NonConjugatedSingleBondInRing AromaticSingleBond AromaticSingleBond AromaticDoubleBond NonConjugatedSingleBond NonConjugatedSingleBondInRing NonConjugatedSingleBond NonConjugatedSingleBond NonConjugatedSingleBond NonConjugatedSingleBond AromaticDoubleBond ConjugatedSingleBond NonConjugatedSingleBond AromaticSingleBond ConjugatedSingleBond NonConjugatedSingleBond NonConjugatedSingleBond NonConjugatedSingleBond NonConjugatedSingleBond NonConjugatedSingleBond ConjugatedDoubleBond ConjugatedSingleBond ConjugatedSingleBond ConjugatedSingleBond ConjugatedSingleBond ConjugatedSingleBond ConjugatedDoubleBond ConjugatedSingleBond ConjugatedSingleBond ConjugatedDoubleBond ConjugatedDoubleBond NonConjugatedSingleBond
M  BCL CHI   2   R   7   R  13   S  17   S  35   R
M  BCL DBI - - - - - - - -
M  END
> <ConfClashScore>
0.00246895 

> <ConfOneFourInteractionScore>
-0.981777 

> <ConfScore>
0.397691 

> <ConfScorePBest>
0.00490145 

> <ConfTolerance>
3.78825 

$$$$
