ChEBI.****
  PyMOL2.5          3D                             0

 43 45  0  0  0  0  0  0  0  0999 V2000
    1.9147    0.3781   -1.3683 N   0  0  0  0  0  0  0  0  0  0  0  0
    1.2315   -0.7708   -1.2468 C   0  0  0  0  0  0  0  0  0  0  0  0
    1.6892   -0.9399   -0.2721 H   0  0  0  0  0  0  0  0  0  0  0  0
    1.3334    0.7198   -1.0360 C   0  0  0  0  0  0  0  0  0  0  0  0
    2.4295    0.9050   -1.5186 C   0  0  0  0  0  0  0  0  0  0  0  0
    3.3840    0.7387   -1.9957 H   0  0  0  0  0  0  0  0  0  0  0  0
    0.8837   -1.4206   -1.1963 C   0  0  0  0  0  0  0  0  0  0  0  0
    0.4261   -1.2515   -2.1710 H   0  0  0  0  0  0  0  0  0  0  0  0
    0.7780   -0.2352   -0.9410 O   0  0  0  0  0  0  0  0  0  0  0  0
    1.4937    1.4486   -0.9848 C   0  0  0  0  0  0  0  0  0  0  0  0
    0.6736    0.4568   -0.7718 N   0  0  0  0  0  0  0  0  0  0  0  0
    2.1711    1.5546   -1.2845 N   0  0  0  0  0  0  0  0  0  0  0  0
    0.2109   -1.3006   -0.8595 C   0  0  0  0  0  0  0  0  0  0  0  0
   -0.2468   -1.1314   -1.8342 H   0  0  0  0  0  0  0  0  0  0  0  0
    1.1502   -2.0798   -1.4358 O   0  0  0  0  0  0  0  0  0  0  0  0
    0.7835   -2.7638   -0.8707 H   0  0  0  0  0  0  0  0  0  0  0  0
    0.1503   -0.5667   -0.7037 C   0  0  0  0  0  0  0  0  0  0  0  0
    0.6079   -0.7359    0.2710 H   0  0  0  0  0  0  0  0  0  0  0  0
    0.9988    1.9278   -0.6693 C   0  0  0  0  0  0  0  0  0  0  0  0
    0.1987    0.9567   -0.4621 C   0  0  0  0  0  0  0  0  0  0  0  0
   -0.7447    0.5933   -0.0822 H   0  0  0  0  0  0  0  0  0  0  0  0
   -0.2977   -1.8285   -0.7123 O   0  0  0  0  0  0  0  0  0  0  0  0
   -0.4342   -0.2397   -0.3725 C   0  0  0  0  0  0  0  0  0  0  0  0
   -0.5948    0.4905   -1.1657 H   0  0  0  0  0  0  0  0  0  0  0  0
    0.1526    0.2143    0.4260 H   0  0  0  0  0  0  0  0  0  0  0  0
    0.3391    1.6658   -0.4050 N   0  0  0  0  0  0  0  0  0  0  0  0
    1.1592    2.6577   -0.6180 N   0  0  0  0  0  0  0  0  0  0  0  0
    0.4959    3.2921   -0.1964 H   0  0  0  0  0  0  0  0  0  0  0  0
    2.0388    3.0073   -0.9703 H   0  0  0  0  0  0  0  0  0  0  0  0
   -0.4544   -2.5580   -0.7653 P   0  0  0  0  0  0  0  0  0  0  0  0
   -1.0982   -0.1212   -0.0401 O   0  0  0  0  0  0  0  0  0  0  0  0
   -0.6592   -3.0788   -0.2629 O   0  0  0  0  0  0  0  0  0  0  0  0
    0.0714   -2.7312   -1.2682 O   0  5  0  0  0  0  0  0  0  0  0  0
   -1.0444   -2.2773   -1.1377 O   0  5  0  0  0  0  0  0  0  0  0  0
   -1.7844   -0.2142   -0.3231 P   0  0  0  0  0  0  0  0  0  0  0  0
   -2.4520   -0.0900    0.0000 O   0  0  0  0  0  0  0  0  0  0  0  0
   -1.8792   -0.5767   -0.9705 O   0  0  0  0  0  0  0  0  0  0  0  0
   -2.1102    0.4469   -0.4726 O   0  5  0  0  0  0  0  0  0  0  0  0
   -3.2000   -0.0900    0.0000 S   0  0  0  0  0  0  0  0  0  0  0  0
   -3.2000   -0.8380    0.0000 O   0  0  0  0  0  0  0  0  0  0  0  0
   -2.9632   -1.1283   -0.8839 H   0  0  0  0  0  0  0  0  0  0  0  0
   -3.9520   -0.0900    0.0000 O   0  0  0  0  0  0  0  0  0  0  0  0
   -3.2000    0.6620    0.0000 O   0  0  0  0  0  0  0  0  0  0  0  0
  1  2  1  0  0  0  0
  1  4  1  0  0  0  0
  1  5  1  0  0  0  0
  2  3  1  0  0  0  0
  2  7  1  0  0  0  0
  2  9  1  0  0  0  0
  5  6  1  0  0  0  0
  5 12  2  0  0  0  0
  7  8  1  0  0  0  0
  7 13  1  0  0  0  0
  7 15  1  0  0  0  0
  9 17  1  0  0  0  0
 10 12  1  0  0  0  0
 13 14  1  0  0  0  0
 13 17  1  0  0  0  0
 13 22  1  0  0  0  0
 15 16  1  0  0  0  0
 17 18  1  0  0  0  0
 17 23  1  0  0  0  0
 19 27  1  0  0  0  0
 20 21  1  0  0  0  0
 22 30  1  0  0  0  0
 23 24  1  0  0  0  0
 23 25  1  0  0  0  0
 23 31  1  0  0  0  0
 27 28  1  0  0  0  0
 27 29  1  0  0  0  0
 31 35  1  0  0  0  0
 35 36  1  0  0  0  0
 36 39  1  0  0  0  0
 39 40  1  0  0  0  0
 39 42  2  0  0  0  0
 39 43  2  0  0  0  0
 40 41  1  0  0  0  0
  4 10  2  0  0  0  0
 19 26  2  0  0  0  0
 11 20  2  0  0  0  0
 30 32  2  0  0  0  0
 35 38  2  0  0  0  0
 10 19  1  0  0  0  0
 20 26  1  0  0  0  0
  4 11  1  0  0  0  0
 30 33  1  0  0  0  0
 35 37  1  0  0  0  0
 30 34  1  0  0  0  0
M  END
$$$$
