# created with PyMOL 2.5.2
@<TRIPOS>MOLECULE
L16
23 24 1                 
SMALL
USER_CHARGES
@<TRIPOS>ATOM
1	   C	0.715	0.556	0.000	C.3	1	UNK0	0.000	
2	   O	0.000	0.969	0.000	O.3	1	UNK0	0.000	
3	   C	1.429	0.969	0.000	C.3	1	UNK0	0.000	
4	   O	1.429	1.793	0.000	O.3	1	UNK0	0.000	
5	   C	2.143	0.556	0.000	C.3	1	UNK0	0.000	
6	   O	2.858	0.969	0.000	O.3	1	UNK0	0.000	
7	   C	2.143	-0.269	0.000	C.3	1	UNK0	0.000	
8	   O	2.858	-0.682	0.000	O.3	1	UNK0	0.000	
9	   C	1.429	-0.682	0.000	C.3	1	UNK0	0.000	
10	   O	0.715	-0.269	0.000	O.3	1	UNK0	0.000	
11	   C	1.429	-1.507	0.000	C.3	1	UNK0	0.000	
12	   O	2.143	-1.919	0.000	O.3	1	UNK0	0.000	
13	   C	-0.715	0.556	0.000	C.3	1	UNK0	0.000	
14	   C	-0.715	-0.269	0.000	C.3	1	UNK0	0.000	
15	   O	0.000	-0.682	0.000	O.3	1	UNK0	0.000	
16	   C	-1.429	-0.682	0.000	C.3	1	UNK0	0.000	
17	   O	-1.429	-1.507	0.000	O.3	1	UNK0	0.000	
18	   C	-2.143	-0.269	0.000	C.3	1	UNK0	0.000	
19	   O	-2.858	-0.682	0.000	O.3	1	UNK0	0.000	
20	   C	-2.143	0.556	0.000	C.3	1	UNK0	0.000	
21	   O	-1.429	0.969	0.000	O.3	1	UNK0	0.000	
22	   C	-2.858	0.969	0.000	C.3	1	UNK0	0.000	
23	   O	-3.572	0.556	0.000	O.3	1	UNK0	0.000	
@<TRIPOS>BOND
1 1 2 1
2 1 3 1
3 3 4 1
4 3 5 1
5 5 6 1
6 5 7 1
7 7 8 1
8 7 9 1
9 9 11 1
10 1 10 1
11 9 10 1
12 11 12 1
13 2 13 1
14 13 14 1
15 14 15 1
16 14 16 1
17 16 17 1
18 16 18 1
19 18 19 1
20 18 20 1
21 20 22 1
22 13 21 1
23 20 21 1
24 22 23 1
@<TRIPOS>SUBSTRUCTURE
1	UNK0	1	GROUP	1 ****	UNK
