# created with PyMOL 2.4.0
@<TRIPOS>MOLECULE
L16.****
45 46 1                 
SMALL
USER_CHARGES
@<TRIPOS>ATOM
1	   C	0.715	0.556	0.000	C.3	1	UNK0	0.000	
2	   H	0.715	0.556	1.090	 H	1	UNK0	0.000	
3	   O	0.000	0.969	0.000	O.3	1	UNK0	0.000	
4	   C	1.429	0.969	0.000	C.3	1	UNK0	0.000	
5	   H	1.429	0.969	1.090	 H	1	UNK0	0.000	
6	   O	1.429	1.793	0.000	O.3	1	UNK0	0.000	
7	   H	0.637	2.083	-0.458	 H	1	UNK0	0.000	
8	   C	2.143	0.556	0.000	C.3	1	UNK0	0.000	
9	   H	2.143	0.556	1.090	 H	1	UNK0	0.000	
10	   O	2.858	0.969	0.000	O.3	1	UNK0	0.000	
11	   H	2.713	1.800	0.458	 H	1	UNK0	0.000	
12	   C	2.143	-0.269	0.000	C.3	1	UNK0	0.000	
13	   H	2.143	-0.269	1.090	 H	1	UNK0	0.000	
14	   O	2.858	-0.682	0.000	O.3	1	UNK0	0.000	
15	   H	3.506	-0.141	-0.458	 H	1	UNK0	0.000	
16	   C	1.429	-0.682	0.000	C.3	1	UNK0	0.000	
17	   H	1.429	-0.682	-1.090	 H	1	UNK0	0.000	
18	   O	0.715	-0.269	0.000	O.3	1	UNK0	0.000	
19	   C	1.429	-1.507	0.000	C.3	1	UNK0	0.000	
20	   H	0.884	-1.822	-0.890	 H	1	UNK0	0.000	
21	   H	0.884	-1.822	0.890	 H	1	UNK0	0.000	
22	   O	2.143	-1.919	0.000	O.3	1	UNK0	0.000	
23	   H	2.852	-1.271	-0.000	 H	1	UNK0	0.000	
24	   C	-0.715	0.556	0.000	C.3	1	UNK0	0.000	
25	   H	-0.715	0.556	1.090	 H	1	UNK0	0.000	
26	   C	-0.715	-0.269	0.000	C.3	1	UNK0	0.000	
27	   H	-0.715	-0.269	1.090	 H	1	UNK0	0.000	
28	   O	0.000	-0.682	0.000	O.3	1	UNK0	0.000	
29	   H	0.251	-0.827	-0.915	 H	1	UNK0	0.000	
30	   C	-1.429	-0.682	0.000	C.3	1	UNK0	0.000	
31	   H	-1.429	-0.682	1.090	 H	1	UNK0	0.000	
32	   O	-1.429	-1.507	0.000	O.3	1	UNK0	0.000	
33	   H	-0.637	-1.797	0.458	 H	1	UNK0	0.000	
34	   C	-2.143	-0.269	0.000	C.3	1	UNK0	0.000	
35	   H	-2.143	-0.269	1.090	 H	1	UNK0	0.000	
36	   O	-2.858	-0.682	0.000	O.3	1	UNK0	0.000	
37	   H	-2.713	-1.513	-0.458	 H	1	UNK0	0.000	
38	   C	-2.143	0.556	0.000	C.3	1	UNK0	0.000	
39	   H	-2.143	0.556	-1.090	 H	1	UNK0	0.000	
40	   O	-1.429	0.969	0.000	O.3	1	UNK0	0.000	
41	   C	-2.858	0.969	0.000	C.3	1	UNK0	0.000	
42	   H	-2.858	1.598	-0.890	 H	1	UNK0	0.000	
43	   H	-2.858	1.598	0.890	 H	1	UNK0	0.000	
44	   O	-3.572	0.556	0.000	O.3	1	UNK0	0.000	
45	   H	-3.365	-0.381	-0.000	 H	1	UNK0	0.000	
@<TRIPOS>BOND
1 1 2 1
2 1 3 1
3 1 4 1
4 1 18 1
5 3 24 1
6 4 5 1
7 4 6 1
8 4 8 1
9 6 7 1
10 8 9 1
11 8 10 1
12 8 12 1
13 10 11 1
14 12 13 1
15 12 14 1
16 12 16 1
17 14 15 1
18 16 17 1
19 16 18 1
20 16 19 1
21 19 20 1
22 19 21 1
23 19 22 1
24 22 23 1
25 24 25 1
26 24 26 1
27 24 40 1
28 26 27 1
29 26 28 1
30 26 30 1
31 28 29 1
32 30 31 1
33 30 32 1
34 30 34 1
35 32 33 1
36 34 35 1
37 34 36 1
38 34 38 1
39 36 37 1
40 38 39 1
41 38 40 1
42 38 41 1
43 41 42 1
44 41 43 1
45 41 44 1
46 44 45 1
@<TRIPOS>SUBSTRUCTURE
1	UNK0	1	GROUP	1 ****	UNK
