L16.****
     RDKit          3D

 45 46  0  0  0  0  0  0  0  0999 V2000
    0.7150    0.5560    0.0000 C   0  0  2  0  0  0  0  0  0  0  0  0
    0.7150    0.5560    1.0900 H   0  0  0  0  0  0  0  0  0  0  0  0
    0.0000    0.9690    0.0000 O   0  0  0  0  0  0  0  0  0  0  0  0
    1.4290    0.9690    0.0000 C   0  0  2  0  0  0  0  0  0  0  0  0
    1.4290    0.9690    1.0900 H   0  0  0  0  0  0  0  0  0  0  0  0
    1.4290    1.7930    0.0000 O   0  0  0  0  0  0  0  0  0  0  0  0
    0.6370    2.0830   -0.4580 H   0  0  0  0  0  0  0  0  0  0  0  0
    2.1430    0.5560    0.0000 C   0  0  2  0  0  0  0  0  0  0  0  0
    2.1430    0.5560    1.0900 H   0  0  0  0  0  0  0  0  0  0  0  0
    2.8580    0.9690    0.0000 O   0  0  0  0  0  0  0  0  0  0  0  0
    2.7130    1.8000    0.4580 H   0  0  0  0  0  0  0  0  0  0  0  0
    2.1430   -0.2690    0.0000 C   0  0  2  0  0  0  0  0  0  0  0  0
    2.1430   -0.2690    1.0900 H   0  0  0  0  0  0  0  0  0  0  0  0
    2.8580   -0.6820    0.0000 O   0  0  0  0  0  0  0  0  0  0  0  0
    3.5060   -0.1410   -0.4580 H   0  0  0  0  0  0  0  0  0  0  0  0
    1.4290   -0.6820    0.0000 C   0  0  2  0  0  0  0  0  0  0  0  0
    1.4290   -0.6820   -1.0900 H   0  0  0  0  0  0  0  0  0  0  0  0
    0.7150   -0.2690    0.0000 O   0  0  0  0  0  0  0  0  0  0  0  0
    1.4290   -1.5070    0.0000 C   0  0  0  0  0  0  0  0  0  0  0  0
    0.8840   -1.8220   -0.8900 H   0  0  0  0  0  0  0  0  0  0  0  0
    0.8840   -1.8220    0.8900 H   0  0  0  0  0  0  0  0  0  0  0  0
    2.1430   -1.9190    0.0000 O   0  0  0  0  0  0  0  0  0  0  0  0
    2.8520   -1.2710   -0.0000 H   0  0  0  0  0  0  0  0  0  0  0  0
   -0.7150    0.5560    0.0000 C   0  0  2  0  0  0  0  0  0  0  0  0
   -0.7150    0.5560    1.0900 H   0  0  0  0  0  0  0  0  0  0  0  0
   -0.7150   -0.2690    0.0000 C   0  0  2  0  0  0  0  0  0  0  0  0
   -0.7150   -0.2690    1.0900 H   0  0  0  0  0  0  0  0  0  0  0  0
    0.0000   -0.6820    0.0000 O   0  0  0  0  0  0  0  0  0  0  0  0
    0.2510   -0.8270   -0.9150 H   0  0  0  0  0  0  0  0  0  0  0  0
   -1.4290   -0.6820    0.0000 C   0  0  2  0  0  0  0  0  0  0  0  0
   -1.4290   -0.6820    1.0900 H   0  0  0  0  0  0  0  0  0  0  0  0
   -1.4290   -1.5070    0.0000 O   0  0  0  0  0  0  0  0  0  0  0  0
   -0.6370   -1.7970    0.4580 H   0  0  0  0  0  0  0  0  0  0  0  0
   -2.1430   -0.2690    0.0000 C   0  0  2  0  0  0  0  0  0  0  0  0
   -2.1430   -0.2690    1.0900 H   0  0  0  0  0  0  0  0  0  0  0  0
   -2.8580   -0.6820    0.0000 O   0  0  0  0  0  0  0  0  0  0  0  0
   -2.7130   -1.5130   -0.4580 H   0  0  0  0  0  0  0  0  0  0  0  0
   -2.1430    0.5560    0.0000 C   0  0  2  0  0  0  0  0  0  0  0  0
   -2.1430    0.5560   -1.0900 H   0  0  0  0  0  0  0  0  0  0  0  0
   -1.4290    0.9690    0.0000 O   0  0  0  0  0  0  0  0  0  0  0  0
   -2.8580    0.9690    0.0000 C   0  0  0  0  0  0  0  0  0  0  0  0
   -2.8580    1.5980   -0.8900 H   0  0  0  0  0  0  0  0  0  0  0  0
   -2.8580    1.5980    0.8900 H   0  0  0  0  0  0  0  0  0  0  0  0
   -3.5720    0.5560    0.0000 O   0  0  0  0  0  0  0  0  0  0  0  0
   -3.3650   -0.3810   -0.0000 H   0  0  0  0  0  0  0  0  0  0  0  0
  1  2  1  6
  1  3  1  0
  1  4  1  0
  1 18  1  0
  3 24  1  0
  4  5  1  6
  4  6  1  0
  4  8  1  0
  6  7  1  0
  8  9  1  6
  8 10  1  0
  8 12  1  0
 10 11  1  0
 12 13  1  6
 12 14  1  0
 12 16  1  0
 14 15  1  0
 16 17  1  6
 16 18  1  0
 16 19  1  0
 19 20  1  0
 19 21  1  0
 19 22  1  0
 22 23  1  0
 24 25  1  6
 24 26  1  0
 24 40  1  0
 26 27  1  6
 26 28  1  0
 26 30  1  0
 28 29  1  0
 30 31  1  6
 30 32  1  0
 30 34  1  0
 32 33  1  0
 34 35  1  6
 34 36  1  0
 34 38  1  0
 36 37  1  0
 38 39  1  6
 38 40  1  0
 38 41  1  0
 41 42  1  0
 41 43  1  0
 41 44  1  0
 44 45  1  0
M  END
