L16.****
  PyMOL2.4          3D                             0

 45 46  0  0  0  0  0  0  0  0999 V2000
    0.7015    0.5077   -0.3034 C   0  0  0  1  0  0  0  0  0  0  0  0
    0.3573    0.9893   -1.1947 H   0  0  0  1  0  0  0  0  0  0  0  0
   -0.4466    0.5418    0.5365 O   0  0  0  1  0  0  0  0  0  0  0  0
    1.2621    0.9626    0.0954 C   0  0  0  1  0  0  0  0  0  0  0  0
    1.4984    1.8396   -0.4704 H   0  0  0  1  0  0  0  0  0  0  0  0
    0.6176    1.5254    1.2390 O   0  0  0  1  0  0  0  0  0  0  0  0
    0.9857    2.3934    1.4196 H   0  0  0  1  0  0  0  0  0  0  0  0
    1.9523    0.6102    0.3778 C   0  0  0  1  0  0  0  0  0  0  0  0
    2.1328    0.8839    1.3963 H   0  0  0  1  0  0  0  0  0  0  0  0
    2.9940    1.3096   -0.3047 O   0  0  0  1  0  0  0  0  0  0  0  0
    3.1604    2.1461    0.1358 H   0  0  0  1  0  0  0  0  0  0  0  0
    2.0817   -0.1963    0.2616 C   0  0  0  1  0  0  0  0  0  0  0  0
    2.3438   -0.6640    1.1876 H   0  0  0  1  0  0  0  0  0  0  0  0
    3.2698   -0.3745   -0.4923 O   0  0  0  1  0  0  0  0  0  0  0  0
    3.6006   -1.2664   -0.3631 H   0  0  0  1  0  0  0  0  0  0  0  0
    1.5210   -0.6513   -0.1372 C   0  0  0  1  0  0  0  0  0  0  0  0
    1.9906   -1.2173   -0.9143 H   0  0  0  1  0  0  0  0  0  0  0  0
    0.8308   -0.2988   -0.4196 O   0  0  0  1  0  0  0  0  0  0  0  0
    1.0093   -1.7661    0.7619 C   0  0  0  1  0  0  0  0  0  0  0  0
    0.4248   -1.3449    1.5531 H   0  0  0  1  0  0  0  0  0  0  0  0
    1.8399   -2.2986    1.1760 H   0  0  0  1  0  0  0  0  0  0  0  0
    0.1983   -2.6676   -0.0013 O   0  0  0  1  0  0  0  0  0  0  0  0
    0.7520   -3.3543   -0.3801 H   0  0  0  1  0  0  0  0  0  0  0  0
   -1.6400    0.2667   -0.1313 C   0  0  0  1  0  0  0  0  0  0  0  0
   -1.4556   -0.7015   -0.5479 H   0  0  0  1  0  0  0  0  0  0  0  0
   -2.1988    0.2345    0.4748 C   0  0  0  1  0  0  0  0  0  0  0  0
   -2.5847   -0.7597    0.5615 H   0  0  0  1  0  0  0  0  0  0  0  0
   -1.5485    0.3933    1.7286 O   0  0  0  1  0  0  0  0  0  0  0  0
   -2.0638   -0.0385    2.4139 H   0  0  0  1  0  0  0  0  0  0  0  0
   -2.8184    0.7786    0.4946 C   0  0  0  1  0  0  0  0  0  0  0  0
   -2.9180    1.2111    1.4682 H   0  0  0  1  0  0  0  0  0  0  0  0
   -3.9888   -0.0360    0.4120 O   0  0  0  1  0  0  0  0  0  0  0  0
   -3.9688   -0.5439   -0.4024 H   0  0  0  1  0  0  0  0  0  0  0  0
   -2.8786    1.3549   -0.0924 C   0  0  0  1  0  0  0  0  0  0  0  0
   -3.8716    1.3901   -0.4895 H   0  0  0  1  0  0  0  0  0  0  0  0
   -2.7917    2.6075    0.5898 O   0  0  0  1  0  0  0  0  0  0  0  0
   -3.1190    3.3066    0.0191 H   0  0  0  1  0  0  0  0  0  0  0  0
   -2.3198    1.3870   -0.6985 C   0  0  0  1  0  0  0  0  0  0  0  0
   -1.9270    2.3797   -0.7708 H   0  0  0  1  0  0  0  0  0  0  0  0
   -1.7002    0.8430   -0.7183 O   0  0  0  1  0  0  0  0  0  0  0  0
   -2.9347    1.2373   -2.0629 C   0  0  0  1  0  0  0  0  0  0  0  0
   -2.1912    1.4567   -2.8005 H   0  0  0  1  0  0  0  0  0  0  0  0
   -3.7433    1.9322   -2.1531 H   0  0  0  1  0  0  0  0  0  0  0  0
   -3.4324   -0.0741   -2.2930 O   0  0  0  1  0  0  0  0  0  0  0  0
   -2.9060   -0.5021   -2.9722 H   0  0  0  1  0  0  0  0  0  0  0  0
  1  2  1  0  0  0  0
  1  3  1  0  0  0  0
  1  4  1  0  0  0  0
  1 18  1  0  0  0  0
  3 24  1  0  0  0  0
  4  5  1  0  0  0  0
  4  6  1  0  0  0  0
  4  8  1  0  0  0  0
  6  7  1  0  0  0  0
  8  9  1  0  0  0  0
  8 10  1  0  0  0  0
  8 12  1  0  0  0  0
 10 11  1  0  0  0  0
 12 13  1  0  0  0  0
 12 14  1  0  0  0  0
 12 16  1  0  0  0  0
 14 15  1  0  0  0  0
 16 17  1  0  0  0  0
 16 18  1  0  0  0  0
 16 19  1  0  0  0  0
 19 20  1  0  0  0  0
 19 21  1  0  0  0  0
 19 22  1  0  0  0  0
 22 23  1  0  0  0  0
 24 25  1  0  0  0  0
 24 26  1  0  0  0  0
 24 40  1  0  0  0  0
 26 27  1  0  0  0  0
 26 28  1  0  0  0  0
 26 30  1  0  0  0  0
 28 29  1  0  0  0  0
 30 31  1  0  0  0  0
 30 32  1  0  0  0  0
 30 34  1  0  0  0  0
 32 33  1  0  0  0  0
 34 35  1  0  0  0  0
 34 36  1  0  0  0  0
 34 38  1  0  0  0  0
 36 37  1  0  0  0  0
 38 39  1  0  0  0  0
 38 40  1  0  0  0  0
 38 41  1  0  0  0  0
 41 42  1  0  0  0  0
 41 43  1  0  0  0  0
 41 44  1  0  0  0  0
 44 45  1  0  0  0  0
M  END
> <ConfClashScore>
0.05352 

> <ConfOneFourInteractionScore>
-0.964077 

> <ConfScore>
5.972 

> <ConfScorePBest>
0.0150985 

> <ConfTolerance>
0.585671 

$$$$
L16.****
  PyMOL2.4          3D                             0

 45 46  0  0  0  0  0  0  0  0999 V2000
    0.6086    0.4864   -0.0100 C   0  0  0  1  0  0  0  0  0  0  0  0
   -0.1636    0.8569    0.6313 H   0  0  0  1  0  0  0  0  0  0  0  0
    0.0412    0.6414   -1.3056 O   0  0  0  1  0  0  0  0  0  0  0  0
    1.2715    0.9773   -0.0090 C   0  0  0  1  0  0  0  0  0  0  0  0
    1.2274    1.6982   -0.7985 H   0  0  0  1  0  0  0  0  0  0  0  0
    1.1440    1.7951    1.1551 O   0  0  0  1  0  0  0  0  0  0  0  0
    0.4140    2.4074    1.0382 H   0  0  0  1  0  0  0  0  0  0  0  0
    2.0255    0.6500    0.0601 C   0  0  0  1  0  0  0  0  0  0  0  0
    2.7148    1.0751   -0.6392 H   0  0  0  1  0  0  0  0  0  0  0  0
    2.5171    1.1316    1.3125 O   0  0  0  1  0  0  0  0  0  0  0  0
    3.4757    1.0818    1.3210 H   0  0  0  1  0  0  0  0  0  0  0  0
    2.1165   -0.1672    0.1281 C   0  0  0  1  0  0  0  0  0  0  0  0
    2.7970   -0.4245    0.9127 H   0  0  0  1  0  0  0  0  0  0  0  0
    2.8298   -0.5778   -1.0403 O   0  0  0  1  0  0  0  0  0  0  0  0
    3.7716   -0.4552   -0.9004 H   0  0  0  1  0  0  0  0  0  0  0  0
    1.4536   -0.6580    0.1271 C   0  0  0  1  0  0  0  0  0  0  0  0
    1.5786   -1.4268   -0.6066 H   0  0  0  1  0  0  0  0  0  0  0  0
    0.6996   -0.3307    0.0580 O   0  0  0  1  0  0  0  0  0  0  0  0
    1.3403   -1.4859    1.3776 C   0  0  0  1  0  0  0  0  0  0  0  0
    2.3014   -1.8974    1.6052 H   0  0  0  1  0  0  0  0  0  0  0  0
    0.6445   -2.2796    1.2020 H   0  0  0  1  0  0  0  0  0  0  0  0
    0.8940   -0.7268    2.4921 O   0  0  0  1  0  0  0  0  0  0  0  0
    1.5284   -0.0314    2.6808 H   0  0  0  1  0  0  0  0  0  0  0  0
   -1.2759    0.2107   -1.3948 C   0  0  0  1  0  0  0  0  0  0  0  0
   -1.7155    0.6094   -0.5045 H   0  0  0  1  0  0  0  0  0  0  0  0
   -1.5861    0.5622   -2.0737 C   0  0  0  1  0  0  0  0  0  0  0  0
   -0.9933    1.3953   -2.3890 H   0  0  0  1  0  0  0  0  0  0  0  0
   -2.7754    1.1931   -1.6181 O   0  0  0  1  0  0  0  0  0  0  0  0
   -2.6340    2.1409   -1.5618 H   0  0  0  1  0  0  0  0  0  0  0  0
   -1.8138    0.0943   -2.7137 C   0  0  0  1  0  0  0  0  0  0  0  0
   -1.3614    0.4618   -3.6111 H   0  0  0  1  0  0  0  0  0  0  0  0
   -3.1948    0.3536   -2.9702 O   0  0  0  1  0  0  0  0  0  0  0  0
   -3.2751    1.1015   -3.5666 H   0  0  0  1  0  0  0  0  0  0  0  0
   -1.7309   -0.7254   -2.6740 C   0  0  0  1  0  0  0  0  0  0  0  0
   -2.6555   -1.1961   -2.9356 H   0  0  0  1  0  0  0  0  0  0  0  0
   -0.9027   -1.1055   -3.7748 O   0  0  0  1  0  0  0  0  0  0  0  0
   -0.0655   -0.6388   -3.7221 H   0  0  0  1  0  0  0  0  0  0  0  0
   -1.4208   -1.0768   -1.9951 C   0  0  0  1  0  0  0  0  0  0  0  0
   -0.6586   -1.7856   -2.2434 H   0  0  0  1  0  0  0  0  0  0  0  0
   -1.1931   -0.6090   -1.3551 O   0  0  0  1  0  0  0  0  0  0  0  0
   -2.4829   -1.9743   -1.4282 C   0  0  0  1  0  0  0  0  0  0  0  0
   -2.1122   -2.4495   -0.5441 H   0  0  0  1  0  0  0  0  0  0  0  0
   -2.7427   -2.7187   -2.1516 H   0  0  0  1  0  0  0  0  0  0  0  0
   -3.6351   -1.2073   -1.1048 O   0  0  0  1  0  0  0  0  0  0  0  0
   -3.8411   -1.3157   -0.1734 H   0  0  0  1  0  0  0  0  0  0  0  0
  1  2  1  0  0  0  0
  1  3  1  0  0  0  0
  1  4  1  0  0  0  0
  1 18  1  0  0  0  0
  3 24  1  0  0  0  0
  4  5  1  0  0  0  0
  4  6  1  0  0  0  0
  4  8  1  0  0  0  0
  6  7  1  0  0  0  0
  8  9  1  0  0  0  0
  8 10  1  0  0  0  0
  8 12  1  0  0  0  0
 10 11  1  0  0  0  0
 12 13  1  0  0  0  0
 12 14  1  0  0  0  0
 12 16  1  0  0  0  0
 14 15  1  0  0  0  0
 16 17  1  0  0  0  0
 16 18  1  0  0  0  0
 16 19  1  0  0  0  0
 19 20  1  0  0  0  0
 19 21  1  0  0  0  0
 19 22  1  0  0  0  0
 22 23  1  0  0  0  0
 24 25  1  0  0  0  0
 24 26  1  0  0  0  0
 24 40  1  0  0  0  0
 26 27  1  0  0  0  0
 26 28  1  0  0  0  0
 26 30  1  0  0  0  0
 28 29  1  0  0  0  0
 30 31  1  0  0  0  0
 30 32  1  0  0  0  0
 30 34  1  0  0  0  0
 32 33  1  0  0  0  0
 34 35  1  0  0  0  0
 34 36  1  0  0  0  0
 34 38  1  0  0  0  0
 36 37  1  0  0  0  0
 38 39  1  0  0  0  0
 38 40  1  0  0  0  0
 38 41  1  0  0  0  0
 41 42  1  0  0  0  0
 41 43  1  0  0  0  0
 41 44  1  0  0  0  0
 44 45  1  0  0  0  0
M  END
> <ConfClashScore>
0.0552809 

> <ConfOneFourInteractionScore>
-0.982662 

> <ConfScore>
6.17452 

> <ConfScorePBest>
0.0149955 

> <ConfTolerance>
0.619402 

$$$$
L16.****
  PyMOL2.4          3D                             0

 45 46  0  0  0  0  0  0  0  0999 V2000
    0.6887    0.5686   -0.1510 C   0  0  0  1  0  0  0  0  0  0  0  0
    0.1844    1.1314   -0.9084 H   0  0  0  1  0  0  0  0  0  0  0  0
   -0.3055    0.4373    0.8585 O   0  0  0  1  0  0  0  0  0  0  0  0
    1.2901    1.0047    0.2075 C   0  0  0  1  0  0  0  0  0  0  0  0
    1.3984    1.9521   -0.2779 H   0  0  0  1  0  0  0  0  0  0  0  0
    0.7366    1.3917    1.4662 O   0  0  0  1  0  0  0  0  0  0  0  0
    0.8046    2.3440    1.5670 H   0  0  0  1  0  0  0  0  0  0  0  0
    2.0301    0.6616    0.3299 C   0  0  0  1  0  0  0  0  0  0  0  0
    2.3591    0.8176    1.3361 H   0  0  0  1  0  0  0  0  0  0  0  0
    2.9595    1.4569   -0.4084 O   0  0  0  1  0  0  0  0  0  0  0  0
    2.8894    1.2472   -1.3426 H   0  0  0  1  0  0  0  0  0  0  0  0
    2.1686   -0.1167    0.0941 C   0  0  0  1  0  0  0  0  0  0  0  0
    3.0828   -0.1957   -0.4564 H   0  0  0  1  0  0  0  0  0  0  0  0
    2.4983   -0.7839    1.3148 O   0  0  0  1  0  0  0  0  0  0  0  0
    3.2773   -1.3290    1.1819 H   0  0  0  1  0  0  0  0  0  0  0  0
    1.5673   -0.5529   -0.2644 C   0  0  0  1  0  0  0  0  0  0  0  0
    1.4410   -1.4735    0.2661 H   0  0  0  1  0  0  0  0  0  0  0  0
    0.8273   -0.2098   -0.3868 O   0  0  0  1  0  0  0  0  0  0  0  0
    1.9650   -1.0767   -1.6144 C   0  0  0  1  0  0  0  0  0  0  0  0
    2.2308   -0.2576   -2.2494 H   0  0  0  1  0  0  0  0  0  0  0  0
    1.1435   -1.6104   -2.0448 H   0  0  0  1  0  0  0  0  0  0  0  0
    3.0770   -1.9500   -1.4800 O   0  0  0  1  0  0  0  0  0  0  0  0
    3.8873   -1.4666   -1.6565 H   0  0  0  1  0  0  0  0  0  0  0  0
   -1.6105    0.6187    0.3909 C   0  0  0  1  0  0  0  0  0  0  0  0
   -1.5636    1.5832   -0.0702 H   0  0  0  1  0  0  0  0  0  0  0  0
   -2.0798    0.6244    1.0694 C   0  0  0  1  0  0  0  0  0  0  0  0
   -2.5144    1.5894    1.2267 H   0  0  0  1  0  0  0  0  0  0  0  0
   -1.2462    0.4859    2.2122 O   0  0  0  1  0  0  0  0  0  0  0  0
   -1.5479    1.0805    2.9029 H   0  0  0  1  0  0  0  0  0  0  0  0
   -2.6348    0.0268    1.1926 C   0  0  0  1  0  0  0  0  0  0  0  0
   -2.4864   -0.4016    2.1619 H   0  0  0  1  0  0  0  0  0  0  0  0
   -3.9193    0.6303    1.3535 O   0  0  0  1  0  0  0  0  0  0  0  0
   -4.4804    0.0545    1.8782 H   0  0  0  1  0  0  0  0  0  0  0  0
   -2.7199   -0.5765    0.6366 C   0  0  0  1  0  0  0  0  0  0  0  0
   -3.7489   -0.7586    0.4063 H   0  0  0  1  0  0  0  0  0  0  0  0
   -2.3406   -1.7798    1.3070 O   0  0  0  1  0  0  0  0  0  0  0  0
   -2.7209   -2.5342    0.8511 H   0  0  0  1  0  0  0  0  0  0  0  0
   -2.2506   -0.5821   -0.0419 C   0  0  0  1  0  0  0  0  0  0  0  0
   -1.8194   -1.5479   -0.2039 H   0  0  0  1  0  0  0  0  0  0  0  0
   -1.6956    0.0155   -0.1652 O   0  0  0  1  0  0  0  0  0  0  0  0
   -3.1248   -0.4422   -1.2548 C   0  0  0  1  0  0  0  0  0  0  0  0
   -3.6230    0.5043   -1.2269 H   0  0  0  1  0  0  0  0  0  0  0  0
   -3.8510   -1.2280   -1.2624 H   0  0  0  1  0  0  0  0  0  0  0  0
   -2.3293   -0.5228   -2.4301 O   0  0  0  1  0  0  0  0  0  0  0  0
   -1.6270    0.1302   -2.3871 H   0  0  0  1  0  0  0  0  0  0  0  0
  1  2  1  0  0  0  0
  1  3  1  0  0  0  0
  1  4  1  0  0  0  0
  1 18  1  0  0  0  0
  3 24  1  0  0  0  0
  4  5  1  0  0  0  0
  4  6  1  0  0  0  0
  4  8  1  0  0  0  0
  6  7  1  0  0  0  0
  8  9  1  0  0  0  0
  8 10  1  0  0  0  0
  8 12  1  0  0  0  0
 10 11  1  0  0  0  0
 12 13  1  0  0  0  0
 12 14  1  0  0  0  0
 12 16  1  0  0  0  0
 14 15  1  0  0  0  0
 16 17  1  0  0  0  0
 16 18  1  0  0  0  0
 16 19  1  0  0  0  0
 19 20  1  0  0  0  0
 19 21  1  0  0  0  0
 19 22  1  0  0  0  0
 22 23  1  0  0  0  0
 24 25  1  0  0  0  0
 24 26  1  0  0  0  0
 24 40  1  0  0  0  0
 26 27  1  0  0  0  0
 26 28  1  0  0  0  0
 26 30  1  0  0  0  0
 28 29  1  0  0  0  0
 30 31  1  0  0  0  0
 30 32  1  0  0  0  0
 30 34  1  0  0  0  0
 32 33  1  0  0  0  0
 34 35  1  0  0  0  0
 34 36  1  0  0  0  0
 34 38  1  0  0  0  0
 36 37  1  0  0  0  0
 38 39  1  0  0  0  0
 38 40  1  0  0  0  0
 38 41  1  0  0  0  0
 41 42  1  0  0  0  0
 41 43  1  0  0  0  0
 41 44  1  0  0  0  0
 44 45  1  0  0  0  0
M  END
> <ConfClashScore>
0.0549809 

> <ConfOneFourInteractionScore>
-0.96156 

> <ConfScore>
6.18686 

> <ConfScorePBest>
0.0148925 

> <ConfTolerance>
0.676098 

$$$$
L16.****
  PyMOL2.4          3D                             0

 45 46  0  0  0  0  0  0  0  0999 V2000
    0.5772    0.4137    0.0528 C   0  0  0  1  0  0  0  0  0  0  0  0
   -0.1475    0.8021   -0.6319 H   0  0  0  1  0  0  0  0  0  0  0  0
   -0.1279    0.3755    1.2882 O   0  0  0  1  0  0  0  0  0  0  0  0
    1.1820    0.9492    0.2196 C   0  0  0  1  0  0  0  0  0  0  0  0
    0.9442    1.5162    1.0953 H   0  0  0  1  0  0  0  0  0  0  0  0
    1.1065    1.9492   -0.7976 O   0  0  0  1  0  0  0  0  0  0  0  0
    1.1605    2.8195   -0.3960 H   0  0  0  1  0  0  0  0  0  0  0  0
    1.9642    0.6894    0.2509 C   0  0  0  1  0  0  0  0  0  0  0  0
    2.6176    1.3379   -0.2945 H   0  0  0  1  0  0  0  0  0  0  0  0
    2.3406    0.9469    1.6049 O   0  0  0  1  0  0  0  0  0  0  0  0
    3.2973    0.9246    1.6814 H   0  0  0  1  0  0  0  0  0  0  0  0
    2.1414   -0.1049    0.1157 C   0  0  0  1  0  0  0  0  0  0  0  0
    2.7937   -0.4866    0.8732 H   0  0  0  1  0  0  0  0  0  0  0  0
    3.0136   -0.0260   -1.0132 O   0  0  0  1  0  0  0  0  0  0  0  0
    3.4302   -0.8789   -1.1566 H   0  0  0  1  0  0  0  0  0  0  0  0
    1.5366   -0.6404   -0.0510 C   0  0  0  1  0  0  0  0  0  0  0  0
    1.7739   -1.2028   -0.9298 H   0  0  0  1  0  0  0  0  0  0  0  0
    0.7544   -0.3806   -0.0824 O   0  0  0  1  0  0  0  0  0  0  0  0
    1.5044   -1.7289    0.9829 C   0  0  0  1  0  0  0  0  0  0  0  0
    1.1832   -1.3307    1.9227 H   0  0  0  1  0  0  0  0  0  0  0  0
    2.4782   -2.1588    1.0913 H   0  0  0  1  0  0  0  0  0  0  0  0
    0.5860   -2.7156    0.5351 O   0  0  0  1  0  0  0  0  0  0  0  0
    0.5260   -2.6864   -0.4226 H   0  0  0  1  0  0  0  0  0  0  0  0
   -1.5057    0.3024    1.1435 C   0  0  0  1  0  0  0  0  0  0  0  0
   -1.6122   -0.3265    0.2844 H   0  0  0  1  0  0  0  0  0  0  0  0
   -1.7787   -0.0765    1.8236 C   0  0  0  1  0  0  0  0  0  0  0  0
   -0.9516   -0.4775    2.3714 H   0  0  0  1  0  0  0  0  0  0  0  0
   -2.4471   -1.2674    1.4152 O   0  0  0  1  0  0  0  0  0  0  0  0
   -2.4447   -1.8999    2.1374 H   0  0  0  1  0  0  0  0  0  0  0  0
   -2.2902    0.3161    2.3380 C   0  0  0  1  0  0  0  0  0  0  0  0
   -3.1295   -0.2989    2.5875 H   0  0  0  1  0  0  0  0  0  0  0  0
   -1.6231    0.4303    3.5958 O   0  0  0  1  0  0  0  0  0  0  0  0
   -1.5087   -0.4427    3.9782 H   0  0  0  1  0  0  0  0  0  0  0  0
   -2.5285    1.0880    2.1714 C   0  0  0  1  0  0  0  0  0  0  0  0
   -2.4561    1.7193    3.0323 H   0  0  0  1  0  0  0  0  0  0  0  0
   -3.9362    1.0602    1.9308 O   0  0  0  1  0  0  0  0  0  0  0  0
   -4.3491    1.8147    2.3571 H   0  0  0  1  0  0  0  0  0  0  0  0
   -2.2555    1.4669    1.4912 C   0  0  0  1  0  0  0  0  0  0  0  0
   -3.0607    1.9268    0.9572 H   0  0  0  1  0  0  0  0  0  0  0  0
   -1.7440    1.0743    0.9769 O   0  0  0  1  0  0  0  0  0  0  0  0
   -1.4332    2.6707    1.8830 C   0  0  0  1  0  0  0  0  0  0  0  0
   -2.0090    3.2774    2.5502 H   0  0  0  1  0  0  0  0  0  0  0  0
   -1.2020    3.2303    1.0008 H   0  0  0  1  0  0  0  0  0  0  0  0
   -0.2178    2.3116    2.5269 O   0  0  0  1  0  0  0  0  0  0  0  0
    0.3159    3.0974    2.6652 H   0  0  0  1  0  0  0  0  0  0  0  0
  1  2  1  0  0  0  0
  1  3  1  0  0  0  0
  1  4  1  0  0  0  0
  1 18  1  0  0  0  0
  3 24  1  0  0  0  0
  4  5  1  0  0  0  0
  4  6  1  0  0  0  0
  4  8  1  0  0  0  0
  6  7  1  0  0  0  0
  8  9  1  0  0  0  0
  8 10  1  0  0  0  0
  8 12  1  0  0  0  0
 10 11  1  0  0  0  0
 12 13  1  0  0  0  0
 12 14  1  0  0  0  0
 12 16  1  0  0  0  0
 14 15  1  0  0  0  0
 16 17  1  0  0  0  0
 16 18  1  0  0  0  0
 16 19  1  0  0  0  0
 19 20  1  0  0  0  0
 19 21  1  0  0  0  0
 19 22  1  0  0  0  0
 22 23  1  0  0  0  0
 24 25  1  0  0  0  0
 24 26  1  0  0  0  0
 24 40  1  0  0  0  0
 26 27  1  0  0  0  0
 26 28  1  0  0  0  0
 26 30  1  0  0  0  0
 28 29  1  0  0  0  0
 30 31  1  0  0  0  0
 30 32  1  0  0  0  0
 30 34  1  0  0  0  0
 32 33  1  0  0  0  0
 34 35  1  0  0  0  0
 34 36  1  0  0  0  0
 34 38  1  0  0  0  0
 36 37  1  0  0  0  0
 38 39  1  0  0  0  0
 38 40  1  0  0  0  0
 38 41  1  0  0  0  0
 41 42  1  0  0  0  0
 41 43  1  0  0  0  0
 41 44  1  0  0  0  0
 44 45  1  0  0  0  0
M  END
> <ConfClashScore>
0.055354 

> <ConfOneFourInteractionScore>
-0.967225 

> <ConfScore>
6.19629 

> <ConfScorePBest>
0.0147895 

> <ConfTolerance>
0.589049 

$$$$
L16.****
  PyMOL2.4          3D                             0

 45 46  0  0  0  0  0  0  0  0999 V2000
    0.6731    0.4311    0.4999 C   0  0  0  1  0  0  0  0  0  0  0  0
   -0.2854    0.7047    0.1109 H   0  0  0  1  0  0  0  0  0  0  0  0
    0.5133    0.6935    1.8892 O   0  0  0  1  0  0  0  0  0  0  0  0
    1.2484    0.9716    0.2606 C   0  0  0  1  0  0  0  0  0  0  0  0
    1.4257    1.7140    1.0105 H   0  0  0  1  0  0  0  0  0  0  0  0
    0.6041    1.7269   -0.7665 O   0  0  0  1  0  0  0  0  0  0  0  0
    0.8882    2.6425   -0.7170 H   0  0  0  1  0  0  0  0  0  0  0  0
    1.9539    0.7017   -0.0707 C   0  0  0  1  0  0  0  0  0  0  0  0
    2.1801    1.2306   -0.9729 H   0  0  0  1  0  0  0  0  0  0  0  0
    3.0146    1.1200    0.7906 O   0  0  0  1  0  0  0  0  0  0  0  0
    2.7429    1.0195    1.7058 H   0  0  0  1  0  0  0  0  0  0  0  0
    2.0839   -0.1078   -0.1627 C   0  0  0  1  0  0  0  0  0  0  0  0
    2.3285   -0.3002   -1.1864 H   0  0  0  1  0  0  0  0  0  0  0  0
    3.3021   -0.4513    0.4680 O   0  0  0  1  0  0  0  0  0  0  0  0
    3.8688   -0.9089   -0.1574 H   0  0  0  1  0  0  0  0  0  0  0  0
    1.5087   -0.6483    0.0766 C   0  0  0  1  0  0  0  0  0  0  0  0
    1.9471   -1.3933    0.7073 H   0  0  0  1  0  0  0  0  0  0  0  0
    0.8032   -0.3784    0.4080 O   0  0  0  1  0  0  0  0  0  0  0  0
    1.0618   -1.4930   -1.0817 C   0  0  0  1  0  0  0  0  0  0  0  0
    1.9124   -1.9672   -1.5251 H   0  0  0  1  0  0  0  0  0  0  0  0
    0.5792   -0.8734   -1.8084 H   0  0  0  1  0  0  0  0  0  0  0  0
    0.1518   -2.4845   -0.6277 O   0  0  0  1  0  0  0  0  0  0  0  0
    0.3871   -3.3338   -1.0084 H   0  0  0  1  0  0  0  0  0  0  0  0
   -0.7943    0.4845    2.3580 C   0  0  0  1  0  0  0  0  0  0  0  0
   -1.3852    0.9272    1.5835 H   0  0  0  1  0  0  0  0  0  0  0  0
   -0.8191    0.9389    3.0462 C   0  0  0  1  0  0  0  0  0  0  0  0
    0.0909    1.4968    3.1203 H   0  0  0  1  0  0  0  0  0  0  0  0
   -1.7592    1.9904    2.8708 O   0  0  0  1  0  0  0  0  0  0  0  0
   -1.4635    2.5703    2.1653 H   0  0  0  1  0  0  0  0  0  0  0  0
   -0.9677    0.5792    3.7734 C   0  0  0  1  0  0  0  0  0  0  0  0
   -0.2857    0.9127    4.5275 H   0  0  0  1  0  0  0  0  0  0  0  0
   -2.1859    1.2175    4.1590 O   0  0  0  1  0  0  0  0  0  0  0  0
   -2.0099    1.8441    4.8648 H   0  0  0  1  0  0  0  0  0  0  0  0
   -1.0913   -0.2354    3.8117 C   0  0  0  1  0  0  0  0  0  0  0  0
   -1.9741   -0.4552    4.3750 H   0  0  0  1  0  0  0  0  0  0  0  0
   -0.0758   -0.8334    4.6199 O   0  0  0  1  0  0  0  0  0  0  0  0
   -0.4684   -1.1761    5.4262 H   0  0  0  1  0  0  0  0  0  0  0  0
   -1.0665   -0.6898    3.1235 C   0  0  0  1  0  0  0  0  0  0  0  0
   -0.4408   -1.5474    3.2575 H   0  0  0  1  0  0  0  0  0  0  0  0
   -0.9179   -0.3301    2.3963 O   0  0  0  1  0  0  0  0  0  0  0  0
   -2.4089   -1.3344    2.9302 C   0  0  0  1  0  0  0  0  0  0  0  0
   -2.6208   -1.9714    3.7634 H   0  0  0  1  0  0  0  0  0  0  0  0
   -2.3988   -1.9141    2.0309 H   0  0  0  1  0  0  0  0  0  0  0  0
   -3.4121   -0.3319    2.8348 O   0  0  0  1  0  0  0  0  0  0  0  0
   -3.6180   -0.1714    1.9110 H   0  0  0  1  0  0  0  0  0  0  0  0
  1  2  1  0  0  0  0
  1  3  1  0  0  0  0
  1  4  1  0  0  0  0
  1 18  1  0  0  0  0
  3 24  1  0  0  0  0
  4  5  1  0  0  0  0
  4  6  1  0  0  0  0
  4  8  1  0  0  0  0
  6  7  1  0  0  0  0
  8  9  1  0  0  0  0
  8 10  1  0  0  0  0
  8 12  1  0  0  0  0
 10 11  1  0  0  0  0
 12 13  1  0  0  0  0
 12 14  1  0  0  0  0
 12 16  1  0  0  0  0
 14 15  1  0  0  0  0
 16 17  1  0  0  0  0
 16 18  1  0  0  0  0
 16 19  1  0  0  0  0
 19 20  1  0  0  0  0
 19 21  1  0  0  0  0
 19 22  1  0  0  0  0
 22 23  1  0  0  0  0
 24 25  1  0  0  0  0
 24 26  1  0  0  0  0
 24 40  1  0  0  0  0
 26 27  1  0  0  0  0
 26 28  1  0  0  0  0
 26 30  1  0  0  0  0
 28 29  1  0  0  0  0
 30 31  1  0  0  0  0
 30 32  1  0  0  0  0
 30 34  1  0  0  0  0
 32 33  1  0  0  0  0
 34 35  1  0  0  0  0
 34 36  1  0  0  0  0
 34 38  1  0  0  0  0
 36 37  1  0  0  0  0
 38 39  1  0  0  0  0
 38 40  1  0  0  0  0
 38 41  1  0  0  0  0
 41 42  1  0  0  0  0
 41 43  1  0  0  0  0
 41 44  1  0  0  0  0
 44 45  1  0  0  0  0
M  END
> <ConfClashScore>
0.0560523 

> <ConfOneFourInteractionScore>
-0.980144 

> <ConfScore>
6.2443 

> <ConfScorePBest>
0.0146865 

> <ConfTolerance>
0.651012 

$$$$
L16.****
  PyMOL2.4          3D                             0

 45 46  0  0  0  0  0  0  0  0999 V2000
    0.5986    0.4641   -0.0945 C   0  0  0  1  0  0  0  0  0  0  0  0
   -0.0504    0.9025   -0.8235 H   0  0  0  1  0  0  0  0  0  0  0  0
   -0.1891    0.4817    1.0903 O   0  0  0  1  0  0  0  0  0  0  0  0
    1.2380    0.9510    0.0916 C   0  0  0  1  0  0  0  0  0  0  0  0
    1.2342    1.8454   -0.4956 H   0  0  0  1  0  0  0  0  0  0  0  0
    0.9740    1.4494    1.4039 O   0  0  0  1  0  0  0  0  0  0  0  0
    1.4906    2.2444    1.5546 H   0  0  0  1  0  0  0  0  0  0  0  0
    1.9957    0.6304    0.1498 C   0  0  0  1  0  0  0  0  0  0  0  0
    2.4651    0.9392    1.0604 H   0  0  0  1  0  0  0  0  0  0  0  0
    2.8432    1.2314   -0.8310 O   0  0  0  1  0  0  0  0  0  0  0  0
    2.8418    2.1843   -0.7150 H   0  0  0  1  0  0  0  0  0  0  0  0
    2.1140   -0.1760    0.0221 C   0  0  0  1  0  0  0  0  0  0  0  0
    2.9477   -0.3551   -0.6242 H   0  0  0  1  0  0  0  0  0  0  0  0
    2.6015   -0.6390    1.2828 O   0  0  0  1  0  0  0  0  0  0  0  0
    3.4661   -1.0391    1.1648 H   0  0  0  1  0  0  0  0  0  0  0  0
    1.4747   -0.6629   -0.1639 C   0  0  0  1  0  0  0  0  0  0  0  0
    1.4656   -1.5227    0.4729 H   0  0  0  1  0  0  0  0  0  0  0  0
    0.7169   -0.3423   -0.2222 O   0  0  0  1  0  0  0  0  0  0  0  0
    1.6346   -1.3116   -1.5113 C   0  0  0  1  0  0  0  0  0  0  0  0
    2.6199   -1.7233   -1.5794 H   0  0  0  1  0  0  0  0  0  0  0  0
    1.5056   -0.5667   -2.2685 H   0  0  0  1  0  0  0  0  0  0  0  0
    0.6907   -2.3505   -1.7285 O   0  0  0  1  0  0  0  0  0  0  0  0
    0.7658   -3.0033   -1.0287 H   0  0  0  1  0  0  0  0  0  0  0  0
   -1.5703    0.3146    0.9216 C   0  0  0  1  0  0  0  0  0  0  0  0
   -1.6171   -0.4693    0.1949 H   0  0  0  1  0  0  0  0  0  0  0  0
   -1.8194    0.0492    1.6620 C   0  0  0  1  0  0  0  0  0  0  0  0
   -0.9844   -0.2348    2.2677 H   0  0  0  1  0  0  0  0  0  0  0  0
   -2.4257   -1.2173    1.3826 O   0  0  0  1  0  0  0  0  0  0  0  0
   -1.7430   -1.8856    1.2886 H   0  0  0  1  0  0  0  0  0  0  0  0
   -2.3635    0.4905    2.0974 C   0  0  0  1  0  0  0  0  0  0  0  0
   -2.0144    0.6324    3.0988 H   0  0  0  1  0  0  0  0  0  0  0  0
   -3.5174   -0.3248    2.3068 O   0  0  0  1  0  0  0  0  0  0  0  0
   -3.8528   -0.1833    3.1952 H   0  0  0  1  0  0  0  0  0  0  0  0
   -2.6582    1.1976    1.7915 C   0  0  0  1  0  0  0  0  0  0  0  0
   -2.6100    1.9815    2.5182 H   0  0  0  1  0  0  0  0  0  0  0  0
   -4.0679    1.0279    1.6305 O   0  0  0  1  0  0  0  0  0  0  0  0
   -4.4931    1.8882    1.6025 H   0  0  0  1  0  0  0  0  0  0  0  0
   -2.4091    1.4630    1.0512 C   0  0  0  1  0  0  0  0  0  0  0  0
   -3.2555    1.7069    0.4437 H   0  0  0  1  0  0  0  0  0  0  0  0
   -1.8650    1.0217    0.6158 O   0  0  0  1  0  0  0  0  0  0  0  0
   -1.7513    2.8076    1.1744 C   0  0  0  1  0  0  0  0  0  0  0  0
   -0.8377    2.6942    1.7197 H   0  0  0  1  0  0  0  0  0  0  0  0
   -2.4071    3.4629    1.7087 H   0  0  0  1  0  0  0  0  0  0  0  0
   -1.4588    3.3868   -0.0903 O   0  0  0  1  0  0  0  0  0  0  0  0
   -1.2406    4.3146    0.0248 H   0  0  0  1  0  0  0  0  0  0  0  0
  1  2  1  0  0  0  0
  1  3  1  0  0  0  0
  1  4  1  0  0  0  0
  1 18  1  0  0  0  0
  3 24  1  0  0  0  0
  4  5  1  0  0  0  0
  4  6  1  0  0  0  0
  4  8  1  0  0  0  0
  6  7  1  0  0  0  0
  8  9  1  0  0  0  0
  8 10  1  0  0  0  0
  8 12  1  0  0  0  0
 10 11  1  0  0  0  0
 12 13  1  0  0  0  0
 12 14  1  0  0  0  0
 12 16  1  0  0  0  0
 14 15  1  0  0  0  0
 16 17  1  0  0  0  0
 16 18  1  0  0  0  0
 16 19  1  0  0  0  0
 19 20  1  0  0  0  0
 19 21  1  0  0  0  0
 19 22  1  0  0  0  0
 22 23  1  0  0  0  0
 24 25  1  0  0  0  0
 24 26  1  0  0  0  0
 24 40  1  0  0  0  0
 26 27  1  0  0  0  0
 26 28  1  0  0  0  0
 26 30  1  0  0  0  0
 28 29  1  0  0  0  0
 30 31  1  0  0  0  0
 30 32  1  0  0  0  0
 30 34  1  0  0  0  0
 32 33  1  0  0  0  0
 34 35  1  0  0  0  0
 34 36  1  0  0  0  0
 34 38  1  0  0  0  0
 36 37  1  0  0  0  0
 38 39  1  0  0  0  0
 38 40  1  0  0  0  0
 38 41  1  0  0  0  0
 41 42  1  0  0  0  0
 41 43  1  0  0  0  0
 41 44  1  0  0  0  0
 44 45  1  0  0  0  0
M  END
> <ConfClashScore>
0.0559708 

> <ConfOneFourInteractionScore>
-0.967225 

> <ConfScore>
6.25182 

> <ConfScorePBest>
0.0145835 

> <ConfTolerance>
0.590663 

$$$$
L16.****
  PyMOL2.4          3D                             0

 45 46  0  0  0  0  0  0  0  0999 V2000
    0.5912    0.4397   -0.0125 C   0  0  0  1  0  0  0  0  0  0  0  0
   -0.1621    0.7438    0.6840 H   0  0  0  1  0  0  0  0  0  0  0  0
   -0.0025    0.7882   -1.2578 O   0  0  0  1  0  0  0  0  0  0  0  0
    1.2515    0.9309    0.0425 C   0  0  0  1  0  0  0  0  0  0  0  0
    1.2260    1.7115   -0.6889 H   0  0  0  1  0  0  0  0  0  0  0  0
    1.1353    1.6579    1.2684 O   0  0  0  1  0  0  0  0  0  0  0  0
    0.6765    2.4857    1.1078 H   0  0  0  1  0  0  0  0  0  0  0  0
    2.0046    0.6015    0.1107 C   0  0  0  1  0  0  0  0  0  0  0  0
    2.6243    1.0027   -0.6638 H   0  0  0  1  0  0  0  0  0  0  0  0
    2.6371    1.1359    1.2571 O   0  0  0  1  0  0  0  0  0  0  0  0
    3.3521    1.7168    0.9871 H   0  0  0  1  0  0  0  0  0  0  0  0
    2.0973   -0.2182    0.1239 C   0  0  0  1  0  0  0  0  0  0  0  0
    2.7369   -0.5208    0.9265 H   0  0  0  1  0  0  0  0  0  0  0  0
    2.8736   -0.5696   -1.0234 O   0  0  0  1  0  0  0  0  0  0  0  0
    3.8068   -0.5418   -0.7997 H   0  0  0  1  0  0  0  0  0  0  0  0
    1.4369   -0.7094    0.0689 C   0  0  0  1  0  0  0  0  0  0  0  0
    1.5884   -1.4797   -0.6581 H   0  0  0  1  0  0  0  0  0  0  0  0
    0.6838   -0.3799    0.0007 O   0  0  0  1  0  0  0  0  0  0  0  0
    1.3053   -1.5201    1.3383 C   0  0  0  1  0  0  0  0  0  0  0  0
    2.2278   -2.0190    1.5504 H   0  0  0  1  0  0  0  0  0  0  0  0
    0.5244   -2.2436    1.2303 H   0  0  0  1  0  0  0  0  0  0  0  0
    0.9889   -0.6185    2.3893 O   0  0  0  1  0  0  0  0  0  0  0  0
    0.4075   -1.0514    3.0187 H   0  0  0  1  0  0  0  0  0  0  0  0
   -1.2947    0.2993   -1.4890 C   0  0  0  1  0  0  0  0  0  0  0  0
   -1.5491   -0.1248   -0.5402 H   0  0  0  1  0  0  0  0  0  0  0  0
   -1.2019   -0.2885   -2.0605 C   0  0  0  1  0  0  0  0  0  0  0  0
   -0.1721   -0.5556   -2.1743 H   0  0  0  1  0  0  0  0  0  0  0  0
   -1.7421   -1.4469   -1.4388 O   0  0  0  1  0  0  0  0  0  0  0  0
   -2.6993   -1.4320   -1.5101 H   0  0  0  1  0  0  0  0  0  0  0  0
   -1.5719   -0.2136   -2.7939 C   0  0  0  1  0  0  0  0  0  0  0  0
   -2.0821   -1.1149   -3.0627 H   0  0  0  1  0  0  0  0  0  0  0  0
   -0.5396   -0.1509   -3.7790 O   0  0  0  1  0  0  0  0  0  0  0  0
   -0.2321   -1.0384   -3.9778 H   0  0  0  1  0  0  0  0  0  0  0  0
   -2.0348    0.4498   -2.9551 C   0  0  0  1  0  0  0  0  0  0  0  0
   -2.9886    0.1516   -3.3376 H   0  0  0  1  0  0  0  0  0  0  0  0
   -1.4461    1.0634   -4.1036 O   0  0  0  1  0  0  0  0  0  0  0  0
   -2.0584    1.7029   -4.4746 H   0  0  0  1  0  0  0  0  0  0  0  0
   -2.1276    1.0376   -2.3837 C   0  0  0  1  0  0  0  0  0  0  0  0
   -1.9179    1.9982   -2.8058 H   0  0  0  1  0  0  0  0  0  0  0  0
   -1.7576    0.9627   -1.6503 O   0  0  0  1  0  0  0  0  0  0  0  0
   -3.5870    1.1961   -2.0278 C   0  0  0  1  0  0  0  0  0  0  0  0
   -4.1536    1.2793   -2.9316 H   0  0  0  1  0  0  0  0  0  0  0  0
   -3.7043    2.0885   -1.4493 H   0  0  0  1  0  0  0  0  0  0  0  0
   -4.0847    0.0977   -1.2773 O   0  0  0  1  0  0  0  0  0  0  0  0
   -4.3047   -0.6232   -1.8719 H   0  0  0  1  0  0  0  0  0  0  0  0
  1  2  1  0  0  0  0
  1  3  1  0  0  0  0
  1  4  1  0  0  0  0
  1 18  1  0  0  0  0
  3 24  1  0  0  0  0
  4  5  1  0  0  0  0
  4  6  1  0  0  0  0
  4  8  1  0  0  0  0
  6  7  1  0  0  0  0
  8  9  1  0  0  0  0
  8 10  1  0  0  0  0
  8 12  1  0  0  0  0
 10 11  1  0  0  0  0
 12 13  1  0  0  0  0
 12 14  1  0  0  0  0
 12 16  1  0  0  0  0
 14 15  1  0  0  0  0
 16 17  1  0  0  0  0
 16 18  1  0  0  0  0
 16 19  1  0  0  0  0
 19 20  1  0  0  0  0
 19 21  1  0  0  0  0
 19 22  1  0  0  0  0
 22 23  1  0  0  0  0
 24 25  1  0  0  0  0
 24 26  1  0  0  0  0
 24 40  1  0  0  0  0
 26 27  1  0  0  0  0
 26 28  1  0  0  0  0
 26 30  1  0  0  0  0
 28 29  1  0  0  0  0
 30 31  1  0  0  0  0
 30 32  1  0  0  0  0
 30 34  1  0  0  0  0
 32 33  1  0  0  0  0
 34 35  1  0  0  0  0
 34 36  1  0  0  0  0
 34 38  1  0  0  0  0
 36 37  1  0  0  0  0
 38 39  1  0  0  0  0
 38 40  1  0  0  0  0
 38 41  1  0  0  0  0
 41 42  1  0  0  0  0
 41 43  1  0  0  0  0
 41 44  1  0  0  0  0
 44 45  1  0  0  0  0
M  END
> <ConfClashScore>
0.0558029 

> <ConfOneFourInteractionScore>
-0.976785 

> <ConfScore>
6.309 

> <ConfScorePBest>
0.0144805 

> <ConfTolerance>
0.76901 

$$$$
L16.****
  PyMOL2.4          3D                             0

 45 46  0  0  0  0  0  0  0  0999 V2000
    0.7076    0.4526   -0.1138 C   0  0  0  1  0  0  0  0  0  0  0  0
    0.0845    0.8940   -0.8633 H   0  0  0  1  0  0  0  0  0  0  0  0
   -0.0843    0.5778    1.0511 O   0  0  0  1  0  0  0  0  0  0  0  0
    1.3540    0.9330    0.0645 C   0  0  0  1  0  0  0  0  0  0  0  0
    1.3490    1.8302   -0.5185 H   0  0  0  1  0  0  0  0  0  0  0  0
    1.1148    1.4280    1.3841 O   0  0  0  1  0  0  0  0  0  0  0  0
    0.8204    2.3405    1.3356 H   0  0  0  1  0  0  0  0  0  0  0  0
    2.1098    0.6055    0.1094 C   0  0  0  1  0  0  0  0  0  0  0  0
    2.6094    0.9171    1.0028 H   0  0  0  1  0  0  0  0  0  0  0  0
    2.8429    1.3048   -0.8980 O   0  0  0  1  0  0  0  0  0  0  0  0
    3.2715    2.0707   -0.5089 H   0  0  0  1  0  0  0  0  0  0  0  0
    2.2189   -0.2013   -0.0237 C   0  0  0  1  0  0  0  0  0  0  0  0
    3.0226   -0.3709   -0.7094 H   0  0  0  1  0  0  0  0  0  0  0  0
    2.7376   -0.7646    1.1840 O   0  0  0  1  0  0  0  0  0  0  0  0
    2.0419   -0.8028    1.8444 H   0  0  0  1  0  0  0  0  0  0  0  0
    1.5725   -0.6817   -0.2019 C   0  0  0  1  0  0  0  0  0  0  0  0
    1.5593   -1.5238    0.4581 H   0  0  0  1  0  0  0  0  0  0  0  0
    0.8168   -0.3542   -0.2469 O   0  0  0  1  0  0  0  0  0  0  0  0
    1.7137   -1.3799   -1.5376 C   0  0  0  1  0  0  0  0  0  0  0  0
    2.7182   -1.7354   -1.6347 H   0  0  0  1  0  0  0  0  0  0  0  0
    1.5071   -0.6759   -2.3165 H   0  0  0  1  0  0  0  0  0  0  0  0
    0.8258   -2.4805   -1.6708 O   0  0  0  1  0  0  0  0  0  0  0  0
    1.3289   -3.2780   -1.8513 H   0  0  0  1  0  0  0  0  0  0  0  0
   -1.4238    0.1370    0.9497 C   0  0  0  1  0  0  0  0  0  0  0  0
   -1.7549    0.6282    0.0587 H   0  0  0  1  0  0  0  0  0  0  0  0
   -1.7779    0.4654    1.6186 C   0  0  0  1  0  0  0  0  0  0  0  0
   -1.1541    1.2110    2.0657 H   0  0  0  1  0  0  0  0  0  0  0  0
   -2.8698    1.2358    1.1347 O   0  0  0  1  0  0  0  0  0  0  0  0
   -2.6962    2.1679    1.2855 H   0  0  0  1  0  0  0  0  0  0  0  0
   -2.1184   -0.0245    2.1882 C   0  0  0  1  0  0  0  0  0  0  0  0
   -3.0976    0.3151    2.4540 H   0  0  0  1  0  0  0  0  0  0  0  0
   -1.3929    0.1786    3.4032 O   0  0  0  1  0  0  0  0  0  0  0  0
   -2.0081    0.2376    4.1378 H   0  0  0  1  0  0  0  0  0  0  0  0
   -2.1043   -0.8432    2.0881 C   0  0  0  1  0  0  0  0  0  0  0  0
   -3.0705   -1.2692    2.2609 H   0  0  0  1  0  0  0  0  0  0  0  0
   -1.3434   -1.3835    3.1703 O   0  0  0  1  0  0  0  0  0  0  0  0
   -1.5652   -2.3103    3.2866 H   0  0  0  1  0  0  0  0  0  0  0  0
   -1.7502   -1.1715    1.4192 C   0  0  0  1  0  0  0  0  0  0  0  0
   -1.0668   -1.9448    1.7016 H   0  0  0  1  0  0  0  0  0  0  0  0
   -1.4097   -0.6816    0.8496 O   0  0  0  1  0  0  0  0  0  0  0  0
   -2.7982   -1.9711    0.6787 C   0  0  0  1  0  0  0  0  0  0  0  0
   -3.1206   -2.7771    1.3042 H   0  0  0  1  0  0  0  0  0  0  0  0
   -2.3613   -2.3652   -0.2150 H   0  0  0  1  0  0  0  0  0  0  0  0
   -3.9301   -1.1869    0.3256 O   0  0  0  1  0  0  0  0  0  0  0  0
   -4.6040   -1.7521   -0.0592 H   0  0  0  1  0  0  0  0  0  0  0  0
  1  2  1  0  0  0  0
  1  3  1  0  0  0  0
  1  4  1  0  0  0  0
  1 18  1  0  0  0  0
  3 24  1  0  0  0  0
  4  5  1  0  0  0  0
  4  6  1  0  0  0  0
  4  8  1  0  0  0  0
  6  7  1  0  0  0  0
  8  9  1  0  0  0  0
  8 10  1  0  0  0  0
  8 12  1  0  0  0  0
 10 11  1  0  0  0  0
 12 13  1  0  0  0  0
 12 14  1  0  0  0  0
 12 16  1  0  0  0  0
 14 15  1  0  0  0  0
 16 17  1  0  0  0  0
 16 18  1  0  0  0  0
 16 19  1  0  0  0  0
 19 20  1  0  0  0  0
 19 21  1  0  0  0  0
 19 22  1  0  0  0  0
 22 23  1  0  0  0  0
 24 25  1  0  0  0  0
 24 26  1  0  0  0  0
 24 40  1  0  0  0  0
 26 27  1  0  0  0  0
 26 28  1  0  0  0  0
 26 30  1  0  0  0  0
 28 29  1  0  0  0  0
 30 31  1  0  0  0  0
 30 32  1  0  0  0  0
 30 34  1  0  0  0  0
 32 33  1  0  0  0  0
 34 35  1  0  0  0  0
 34 36  1  0  0  0  0
 34 38  1  0  0  0  0
 36 37  1  0  0  0  0
 38 39  1  0  0  0  0
 38 40  1  0  0  0  0
 38 41  1  0  0  0  0
 41 42  1  0  0  0  0
 41 43  1  0  0  0  0
 41 44  1  0  0  0  0
 44 45  1  0  0  0  0
M  END
> <ConfClashScore>
0.0567931 

> <ConfOneFourInteractionScore>
-0.973101 

> <ConfScore>
6.31543 

> <ConfScorePBest>
0.0143775 

> <ConfTolerance>
0.612366 

$$$$
L16.****
  PyMOL2.4          3D                             0

 45 46  0  0  0  0  0  0  0  0999 V2000
    0.6874    0.4326   -0.0230 C   0  0  0  1  0  0  0  0  0  0  0  0
    0.1189    0.8969   -0.8015 H   0  0  0  1  0  0  0  0  0  0  0  0
   -0.1821    0.5094    1.1007 O   0  0  0  1  0  0  0  0  0  0  0  0
    1.3380    0.8855    0.2050 C   0  0  0  1  0  0  0  0  0  0  0  0
    1.0874    1.4920    1.0501 H   0  0  0  1  0  0  0  0  0  0  0  0
    1.5940    1.8782   -0.7918 O   0  0  0  1  0  0  0  0  0  0  0  0
    1.3910    2.7473   -0.4381 H   0  0  0  1  0  0  0  0  0  0  0  0
    2.0702    0.5240    0.3215 C   0  0  0  1  0  0  0  0  0  0  0  0
    2.8491    1.0613   -0.1780 H   0  0  0  1  0  0  0  0  0  0  0  0
    2.3605    0.7885    1.6952 O   0  0  0  1  0  0  0  0  0  0  0  0
    2.6017    1.7119    1.7997 H   0  0  0  1  0  0  0  0  0  0  0  0
    2.1517   -0.2894    0.2100 C   0  0  0  1  0  0  0  0  0  0  0  0
    2.6667   -0.7413    1.0319 H   0  0  0  1  0  0  0  0  0  0  0  0
    3.0805   -0.4735   -0.8599 O   0  0  0  1  0  0  0  0  0  0  0  0
    2.8495    0.1076   -1.5884 H   0  0  0  1  0  0  0  0  0  0  0  0
    1.5011   -0.7422   -0.0181 C   0  0  0  1  0  0  0  0  0  0  0  0
    1.7474   -1.3873   -0.8355 H   0  0  0  1  0  0  0  0  0  0  0  0
    0.7689   -0.3807   -0.1345 O   0  0  0  1  0  0  0  0  0  0  0  0
    1.1809   -1.7456    1.0666 C   0  0  0  1  0  0  0  0  0  0  0  0
    0.7262   -1.2308    1.8871 H   0  0  0  1  0  0  0  0  0  0  0  0
    2.0923   -2.2018    1.3922 H   0  0  0  1  0  0  0  0  0  0  0  0
    0.2960   -2.7630    0.6202 O   0  0  0  1  0  0  0  0  0  0  0  0
   -0.2816   -3.0243    1.3412 H   0  0  0  1  0  0  0  0  0  0  0  0
   -1.5399    0.4021    0.8371 C   0  0  0  1  0  0  0  0  0  0  0  0
   -1.5696   -0.3769    0.1042 H   0  0  0  1  0  0  0  0  0  0  0  0
   -1.8828    0.1553    1.5457 C   0  0  0  1  0  0  0  0  0  0  0  0
   -2.2303   -0.8541    1.4742 H   0  0  0  1  0  0  0  0  0  0  0  0
   -0.7744    0.0260    2.4259 O   0  0  0  1  0  0  0  0  0  0  0  0
   -1.0323   -0.4915    3.1922 H   0  0  0  1  0  0  0  0  0  0  0  0
   -2.4374    0.6340    1.9249 C   0  0  0  1  0  0  0  0  0  0  0  0
   -2.1442    0.7790    2.9437 H   0  0  0  1  0  0  0  0  0  0  0  0
   -3.6210   -0.1485    2.0892 O   0  0  0  1  0  0  0  0  0  0  0  0
   -3.6935   -0.4318    3.0035 H   0  0  0  1  0  0  0  0  0  0  0  0
   -2.6486    1.3597    1.5946 C   0  0  0  1  0  0  0  0  0  0  0  0
   -2.6149    2.1383    2.3277 H   0  0  0  1  0  0  0  0  0  0  0  0
   -4.0531    1.2317    1.3644 O   0  0  0  1  0  0  0  0  0  0  0  0
   -4.5349    1.6319    2.0920 H   0  0  0  1  0  0  0  0  0  0  0  0
   -2.3057    1.6065    0.8860 C   0  0  0  1  0  0  0  0  0  0  0  0
   -3.0815    1.8562    0.1927 H   0  0  0  1  0  0  0  0  0  0  0  0
   -1.7511    1.1278    0.5068 O   0  0  0  1  0  0  0  0  0  0  0  0
   -1.6013    2.9290    0.9845 C   0  0  0  1  0  0  0  0  0  0  0  0
   -2.2895    3.6739    1.3258 H   0  0  0  1  0  0  0  0  0  0  0  0
   -1.2256    3.2044    0.0212 H   0  0  0  1  0  0  0  0  0  0  0  0
   -0.5204    2.8285    1.9022 O   0  0  0  1  0  0  0  0  0  0  0  0
   -0.5534    3.5642    2.5180 H   0  0  0  1  0  0  0  0  0  0  0  0
  1  2  1  0  0  0  0
  1  3  1  0  0  0  0
  1  4  1  0  0  0  0
  1 18  1  0  0  0  0
  3 24  1  0  0  0  0
  4  5  1  0  0  0  0
  4  6  1  0  0  0  0
  4  8  1  0  0  0  0
  6  7  1  0  0  0  0
  8  9  1  0  0  0  0
  8 10  1  0  0  0  0
  8 12  1  0  0  0  0
 10 11  1  0  0  0  0
 12 13  1  0  0  0  0
 12 14  1  0  0  0  0
 12 16  1  0  0  0  0
 14 15  1  0  0  0  0
 16 17  1  0  0  0  0
 16 18  1  0  0  0  0
 16 19  1  0  0  0  0
 19 20  1  0  0  0  0
 19 21  1  0  0  0  0
 19 22  1  0  0  0  0
 22 23  1  0  0  0  0
 24 25  1  0  0  0  0
 24 26  1  0  0  0  0
 24 40  1  0  0  0  0
 26 27  1  0  0  0  0
 26 28  1  0  0  0  0
 26 30  1  0  0  0  0
 28 29  1  0  0  0  0
 30 31  1  0  0  0  0
 30 32  1  0  0  0  0
 30 34  1  0  0  0  0
 32 33  1  0  0  0  0
 34 35  1  0  0  0  0
 34 36  1  0  0  0  0
 34 38  1  0  0  0  0
 36 37  1  0  0  0  0
 38 39  1  0  0  0  0
 38 40  1  0  0  0  0
 38 41  1  0  0  0  0
 41 42  1  0  0  0  0
 41 43  1  0  0  0  0
 41 44  1  0  0  0  0
 44 45  1  0  0  0  0
M  END
> <ConfClashScore>
0.056927 

> <ConfOneFourInteractionScore>
-0.973836 

> <ConfScore>
6.33773 

> <ConfScorePBest>
0.0142745 

> <ConfTolerance>
0.557564 

$$$$
L16.****
  PyMOL2.4          3D                             0

 45 46  0  0  0  0  0  0  0  0999 V2000
    0.5630    0.4123    0.0119 C   0  0  0  1  0  0  0  0  0  0  0  0
    0.0934    0.9748   -0.7678 H   0  0  0  1  0  0  0  0  0  0  0  0
   -0.5142    0.2063    0.9198 O   0  0  0  1  0  0  0  0  0  0  0  0
    1.1223    0.8760    0.4025 C   0  0  0  1  0  0  0  0  0  0  0  0
    0.7205    1.2796    1.3084 H   0  0  0  1  0  0  0  0  0  0  0  0
    1.2308    2.0406   -0.4174 O   0  0  0  1  0  0  0  0  0  0  0  0
    1.3409    2.8151    0.1390 H   0  0  0  1  0  0  0  0  0  0  0  0
    1.8858    0.5871    0.5208 C   0  0  0  1  0  0  0  0  0  0  0  0
    2.1985    0.7279    1.5343 H   0  0  0  1  0  0  0  0  0  0  0  0
    2.7746    1.4530   -0.1874 O   0  0  0  1  0  0  0  0  0  0  0  0
    3.5546    1.6184    0.3472 H   0  0  0  1  0  0  0  0  0  0  0  0
    2.0898   -0.1646    0.2487 C   0  0  0  1  0  0  0  0  0  0  0  0
    2.5517   -0.7273    1.0328 H   0  0  0  1  0  0  0  0  0  0  0  0
    3.1617   -0.0504   -0.6883 O   0  0  0  1  0  0  0  0  0  0  0  0
    3.6154   -0.8933   -0.7605 H   0  0  0  1  0  0  0  0  0  0  0  0
    1.5305   -0.6283   -0.1420 C   0  0  0  1  0  0  0  0  0  0  0  0
    1.9326   -1.0236   -1.0513 H   0  0  0  1  0  0  0  0  0  0  0  0
    0.7670   -0.3393   -0.2602 O   0  0  0  1  0  0  0  0  0  0  0  0
    1.2440   -1.8894    0.6217 C   0  0  0  1  0  0  0  0  0  0  0  0
    0.7127   -1.6589    1.5214 H   0  0  0  1  0  0  0  0  0  0  0  0
    2.1605   -2.3852    0.8651 H   0  0  0  1  0  0  0  0  0  0  0  0
    0.4492   -2.7212   -0.2113 O   0  0  0  1  0  0  0  0  0  0  0  0
    0.8627   -3.5840   -0.2907 H   0  0  0  1  0  0  0  0  0  0  0  0
   -1.7373    0.0745    0.2505 C   0  0  0  1  0  0  0  0  0  0  0  0
   -1.5260   -0.6594   -0.4990 H   0  0  0  1  0  0  0  0  0  0  0  0
   -2.2737   -0.1950    0.8165 C   0  0  0  1  0  0  0  0  0  0  0  0
   -1.7635   -0.6337    1.6485 H   0  0  0  1  0  0  0  0  0  0  0  0
   -2.8690   -1.3307    0.2035 O   0  0  0  1  0  0  0  0  0  0  0  0
   -3.4259   -1.0466   -0.5251 H   0  0  0  1  0  0  0  0  0  0  0  0
   -2.8862    0.2951    1.0713 C   0  0  0  1  0  0  0  0  0  0  0  0
   -3.8142   -0.2216    0.9417 H   0  0  0  1  0  0  0  0  0  0  0  0
   -2.8365    0.3982    2.4808 O   0  0  0  1  0  0  0  0  0  0  0  0
   -1.9497    0.6456    2.7529 H   0  0  0  1  0  0  0  0  0  0  0  0
   -2.9618    1.0550    0.7595 C   0  0  0  1  0  0  0  0  0  0  0  0
   -3.1579    1.7870    1.5148 H   0  0  0  1  0  0  0  0  0  0  0  0
   -4.1683    1.0637   -0.0064 O   0  0  0  1  0  0  0  0  0  0  0  0
   -4.9071    1.2925    0.5623 H   0  0  0  1  0  0  0  0  0  0  0  0
   -2.4254    1.3244    0.1934 C   0  0  0  1  0  0  0  0  0  0  0  0
   -2.9386    1.7553   -0.6407 H   0  0  0  1  0  0  0  0  0  0  0  0
   -1.8129    0.8343   -0.0614 O   0  0  0  1  0  0  0  0  0  0  0  0
   -1.7103    2.5231    0.7479 C   0  0  0  1  0  0  0  0  0  0  0  0
   -0.8041    2.6916    0.2045 H   0  0  0  1  0  0  0  0  0  0  0  0
   -1.4831    2.3670    1.7818 H   0  0  0  1  0  0  0  0  0  0  0  0
   -2.5767    3.6410    0.6050 O   0  0  0  1  0  0  0  0  0  0  0  0
   -3.3365    3.3917    0.0738 H   0  0  0  1  0  0  0  0  0  0  0  0
  1  2  1  0  0  0  0
  1  3  1  0  0  0  0
  1  4  1  0  0  0  0
  1 18  1  0  0  0  0
  3 24  1  0  0  0  0
  4  5  1  0  0  0  0
  4  6  1  0  0  0  0
  4  8  1  0  0  0  0
  6  7  1  0  0  0  0
  8  9  1  0  0  0  0
  8 10  1  0  0  0  0
  8 12  1  0  0  0  0
 10 11  1  0  0  0  0
 12 13  1  0  0  0  0
 12 14  1  0  0  0  0
 12 16  1  0  0  0  0
 14 15  1  0  0  0  0
 16 17  1  0  0  0  0
 16 18  1  0  0  0  0
 16 19  1  0  0  0  0
 19 20  1  0  0  0  0
 19 21  1  0  0  0  0
 19 22  1  0  0  0  0
 22 23  1  0  0  0  0
 24 25  1  0  0  0  0
 24 26  1  0  0  0  0
 24 40  1  0  0  0  0
 26 27  1  0  0  0  0
 26 28  1  0  0  0  0
 26 30  1  0  0  0  0
 28 29  1  0  0  0  0
 30 31  1  0  0  0  0
 30 32  1  0  0  0  0
 30 34  1  0  0  0  0
 32 33  1  0  0  0  0
 34 35  1  0  0  0  0
 34 36  1  0  0  0  0
 34 38  1  0  0  0  0
 36 37  1  0  0  0  0
 38 39  1  0  0  0  0
 38 40  1  0  0  0  0
 38 41  1  0  0  0  0
 41 42  1  0  0  0  0
 41 43  1  0  0  0  0
 41 44  1  0  0  0  0
 44 45  1  0  0  0  0
M  END
> <ConfClashScore>
0.0555875 

> <ConfOneFourInteractionScore>
-0.958096 

> <ConfScore>
6.33866 

> <ConfScorePBest>
0.0141715 

> <ConfTolerance>
0.596865 

$$$$
L16.****
  PyMOL2.4          3D                             0

 45 46  0  0  0  0  0  0  0  0999 V2000
    0.7055    0.4548    0.0181 C   0  0  0  1  0  0  0  0  0  0  0  0
    0.2155    0.9401   -0.7999 H   0  0  0  1  0  0  0  0  0  0  0  0
   -0.2310    0.6378    1.0736 O   0  0  0  1  0  0  0  0  0  0  0  0
    1.3644    0.8881    0.2599 C   0  0  0  1  0  0  0  0  0  0  0  0
    1.1378    1.5482    1.0710 H   0  0  0  1  0  0  0  0  0  0  0  0
    1.5706    1.7909   -0.8276 O   0  0  0  1  0  0  0  0  0  0  0  0
    1.1831    2.6430   -0.6145 H   0  0  0  1  0  0  0  0  0  0  0  0
    2.0909    0.5104    0.3600 C   0  0  0  1  0  0  0  0  0  0  0  0
    2.8703    1.0489   -0.1375 H   0  0  0  1  0  0  0  0  0  0  0  0
    2.4352    0.6998    1.7337 O   0  0  0  1  0  0  0  0  0  0  0  0
    2.6276    1.6270    1.8909 H   0  0  0  1  0  0  0  0  0  0  0  0
    2.1584   -0.2995    0.2184 C   0  0  0  1  0  0  0  0  0  0  0  0
    2.6834   -0.7932    1.0094 H   0  0  0  1  0  0  0  0  0  0  0  0
    3.0912   -0.3824   -0.8612 O   0  0  0  1  0  0  0  0  0  0  0  0
    2.7874    0.1640   -1.5898 H   0  0  0  1  0  0  0  0  0  0  0  0
    1.4995   -0.7328   -0.0234 C   0  0  0  1  0  0  0  0  0  0  0  0
    1.7321   -1.3506   -0.8654 H   0  0  0  1  0  0  0  0  0  0  0  0
    0.7730   -0.3552   -0.1234 O   0  0  0  1  0  0  0  0  0  0  0  0
    1.1681   -1.7644    1.0196 C   0  0  0  1  0  0  0  0  0  0  0  0
    0.2589   -2.2612    0.7522 H   0  0  0  1  0  0  0  0  0  0  0  0
    1.0473   -1.2848    1.9684 H   0  0  0  1  0  0  0  0  0  0  0  0
    2.2194   -2.7160    1.1022 O   0  0  0  1  0  0  0  0  0  0  0  0
    2.1611   -3.3230    0.3608 H   0  0  0  1  0  0  0  0  0  0  0  0
   -1.5573    0.3840    0.7016 C   0  0  0  1  0  0  0  0  0  0  0  0
   -1.4753   -0.4761    0.0703 H   0  0  0  1  0  0  0  0  0  0  0  0
   -1.9082    0.2168    1.4293 C   0  0  0  1  0  0  0  0  0  0  0  0
   -2.2962   -0.7804    1.4235 H   0  0  0  1  0  0  0  0  0  0  0  0
   -0.8512    0.0996    2.3722 O   0  0  0  1  0  0  0  0  0  0  0  0
   -1.1433   -0.4314    3.1167 H   0  0  0  1  0  0  0  0  0  0  0  0
   -2.4689    0.7326    1.7456 C   0  0  0  1  0  0  0  0  0  0  0  0
   -2.2051    0.9825    2.7521 H   0  0  0  1  0  0  0  0  0  0  0  0
   -3.6734   -0.0079    1.9477 O   0  0  0  1  0  0  0  0  0  0  0  0
   -4.0233    0.1815    2.8214 H   0  0  0  1  0  0  0  0  0  0  0  0
   -2.6781    1.4157    1.3334 C   0  0  0  1  0  0  0  0  0  0  0  0
   -3.7428    1.4902    1.2567 H   0  0  0  1  0  0  0  0  0  0  0  0
   -2.3740    2.5296    2.1753 O   0  0  0  1  0  0  0  0  0  0  0  0
   -1.4559    2.4813    2.4515 H   0  0  0  1  0  0  0  0  0  0  0  0
   -2.3272    1.5828    0.6057 C   0  0  0  1  0  0  0  0  0  0  0  0
   -1.9317    2.5770    0.6190 H   0  0  0  1  0  0  0  0  0  0  0  0
   -1.7666    1.0671    0.2894 O   0  0  0  1  0  0  0  0  0  0  0  0
   -3.3291    1.7034   -0.5063 C   0  0  0  1  0  0  0  0  0  0  0  0
   -2.8324    2.0195   -1.3998 H   0  0  0  1  0  0  0  0  0  0  0  0
   -4.0735    2.4235   -0.2377 H   0  0  0  1  0  0  0  0  0  0  0  0
   -3.9491    0.4441   -0.7307 O   0  0  0  1  0  0  0  0  0  0  0  0
   -3.5397   -0.2190   -0.1701 H   0  0  0  1  0  0  0  0  0  0  0  0
  1  2  1  0  0  0  0
  1  3  1  0  0  0  0
  1  4  1  0  0  0  0
  1 18  1  0  0  0  0
  3 24  1  0  0  0  0
  4  5  1  0  0  0  0
  4  6  1  0  0  0  0
  4  8  1  0  0  0  0
  6  7  1  0  0  0  0
  8  9  1  0  0  0  0
  8 10  1  0  0  0  0
  8 12  1  0  0  0  0
 10 11  1  0  0  0  0
 12 13  1  0  0  0  0
 12 14  1  0  0  0  0
 12 16  1  0  0  0  0
 14 15  1  0  0  0  0
 16 17  1  0  0  0  0
 16 18  1  0  0  0  0
 16 19  1  0  0  0  0
 19 20  1  0  0  0  0
 19 21  1  0  0  0  0
 19 22  1  0  0  0  0
 22 23  1  0  0  0  0
 24 25  1  0  0  0  0
 24 26  1  0  0  0  0
 24 40  1  0  0  0  0
 26 27  1  0  0  0  0
 26 28  1  0  0  0  0
 26 30  1  0  0  0  0
 28 29  1  0  0  0  0
 30 31  1  0  0  0  0
 30 32  1  0  0  0  0
 30 34  1  0  0  0  0
 32 33  1  0  0  0  0
 34 35  1  0  0  0  0
 34 36  1  0  0  0  0
 34 38  1  0  0  0  0
 36 37  1  0  0  0  0
 38 39  1  0  0  0  0
 38 40  1  0  0  0  0
 38 41  1  0  0  0  0
 41 42  1  0  0  0  0
 41 43  1  0  0  0  0
 41 44  1  0  0  0  0
 44 45  1  0  0  0  0
M  END
> <ConfClashScore>
0.0562231 

> <ConfOneFourInteractionScore>
-0.973836 

> <ConfScore>
6.33976 

> <ConfScorePBest>
0.0140685 

> <ConfTolerance>
0.596728 

$$$$
L16.****
  PyMOL2.4          3D                             0

 45 46  0  0  0  0  0  0  0  0999 V2000
    0.6045    0.4653   -0.1024 C   0  0  0  1  0  0  0  0  0  0  0  0
   -0.0007    0.9053   -0.8673 H   0  0  0  1  0  0  0  0  0  0  0  0
   -0.2786    0.4250    1.0125 O   0  0  0  1  0  0  0  0  0  0  0  0
    1.2277    0.9590    0.1171 C   0  0  0  1  0  0  0  0  0  0  0  0
    1.2436    1.8329   -0.5001 H   0  0  0  1  0  0  0  0  0  0  0  0
    0.9009    1.5152    1.3916 O   0  0  0  1  0  0  0  0  0  0  0  0
    1.4582    2.2784    1.5606 H   0  0  0  1  0  0  0  0  0  0  0  0
    1.9887    0.6506    0.1956 C   0  0  0  1  0  0  0  0  0  0  0  0
    2.4558    0.9779    1.1009 H   0  0  0  1  0  0  0  0  0  0  0  0
    2.7759    1.2988   -0.8046 O   0  0  0  1  0  0  0  0  0  0  0  0
    2.9164    2.2158   -0.5574 H   0  0  0  1  0  0  0  0  0  0  0  0
    2.1263   -0.1505    0.0546 C   0  0  0  1  0  0  0  0  0  0  0  0
    2.9377   -0.2631   -0.6338 H   0  0  0  1  0  0  0  0  0  0  0  0
    2.6990   -0.6828    1.2509 O   0  0  0  1  0  0  0  0  0  0  0  0
    3.3069   -1.3915    1.0274 H   0  0  0  1  0  0  0  0  0  0  0  0
    1.5031   -0.6442   -0.1650 C   0  0  0  1  0  0  0  0  0  0  0  0
    1.4836   -1.5097    0.4638 H   0  0  0  1  0  0  0  0  0  0  0  0
    0.7421   -0.3358   -0.2434 O   0  0  0  1  0  0  0  0  0  0  0  0
    1.7718   -1.2716   -1.4890 C   0  0  0  1  0  0  0  0  0  0  0  0
    2.7744   -1.6454   -1.4838 H   0  0  0  1  0  0  0  0  0  0  0  0
    1.6758   -0.5170   -2.2415 H   0  0  0  1  0  0  0  0  0  0  0  0
    0.9013   -2.3432   -1.8226 O   0  0  0  1  0  0  0  0  0  0  0  0
    0.1157   -2.3010   -1.2725 H   0  0  0  1  0  0  0  0  0  0  0  0
   -1.6165    0.2834    0.6626 C   0  0  0  1  0  0  0  0  0  0  0  0
   -1.5910   -0.5097   -0.0552 H   0  0  0  1  0  0  0  0  0  0  0  0
   -1.9893    0.0538    1.3618 C   0  0  0  1  0  0  0  0  0  0  0  0
   -1.2610   -0.2513    2.0839 H   0  0  0  1  0  0  0  0  0  0  0  0
   -2.6940   -1.1603    1.1392 O   0  0  0  1  0  0  0  0  0  0  0  0
   -2.8562   -1.5954    1.9795 H   0  0  0  1  0  0  0  0  0  0  0  0
   -2.5479    0.5483    1.7137 C   0  0  0  1  0  0  0  0  0  0  0  0
   -3.4369    0.0049    1.9572 H   0  0  0  1  0  0  0  0  0  0  0  0
   -2.0279    0.8548    3.0082 O   0  0  0  1  0  0  0  0  0  0  0  0
   -2.3148    0.1869    3.6352 H   0  0  0  1  0  0  0  0  0  0  0  0
   -2.7333    1.2727    1.3655 C   0  0  0  1  0  0  0  0  0  0  0  0
   -3.7929    1.4036    1.2953 H   0  0  0  1  0  0  0  0  0  0  0  0
   -2.3704    2.2956    2.2950 O   0  0  0  1  0  0  0  0  0  0  0  0
   -3.1641    2.6814    2.6730 H   0  0  0  1  0  0  0  0  0  0  0  0
   -2.3605    1.5023    0.6662 C   0  0  0  1  0  0  0  0  0  0  0  0
   -1.9992    2.5072    0.7332 H   0  0  0  1  0  0  0  0  0  0  0  0
   -1.8019    1.0078    0.3143 O   0  0  0  1  0  0  0  0  0  0  0  0
   -3.3871    1.6295   -0.4223 C   0  0  0  1  0  0  0  0  0  0  0  0
   -2.9225    2.0140   -1.3061 H   0  0  0  1  0  0  0  0  0  0  0  0
   -4.1603    2.2979   -0.1056 H   0  0  0  1  0  0  0  0  0  0  0  0
   -3.9498    0.3543   -0.7009 O   0  0  0  1  0  0  0  0  0  0  0  0
   -3.2464   -0.2910   -0.8032 H   0  0  0  1  0  0  0  0  0  0  0  0
  1  2  1  0  0  0  0
  1  3  1  0  0  0  0
  1  4  1  0  0  0  0
  1 18  1  0  0  0  0
  3 24  1  0  0  0  0
  4  5  1  0  0  0  0
  4  6  1  0  0  0  0
  4  8  1  0  0  0  0
  6  7  1  0  0  0  0
  8  9  1  0  0  0  0
  8 10  1  0  0  0  0
  8 12  1  0  0  0  0
 10 11  1  0  0  0  0
 12 13  1  0  0  0  0
 12 14  1  0  0  0  0
 12 16  1  0  0  0  0
 14 15  1  0  0  0  0
 16 17  1  0  0  0  0
 16 18  1  0  0  0  0
 16 19  1  0  0  0  0
 19 20  1  0  0  0  0
 19 21  1  0  0  0  0
 19 22  1  0  0  0  0
 22 23  1  0  0  0  0
 24 25  1  0  0  0  0
 24 26  1  0  0  0  0
 24 40  1  0  0  0  0
 26 27  1  0  0  0  0
 26 28  1  0  0  0  0
 26 30  1  0  0  0  0
 28 29  1  0  0  0  0
 30 31  1  0  0  0  0
 30 32  1  0  0  0  0
 30 34  1  0  0  0  0
 32 33  1  0  0  0  0
 34 35  1  0  0  0  0
 34 36  1  0  0  0  0
 34 38  1  0  0  0  0
 36 37  1  0  0  0  0
 38 39  1  0  0  0  0
 38 40  1  0  0  0  0
 38 41  1  0  0  0  0
 41 42  1  0  0  0  0
 41 43  1  0  0  0  0
 41 44  1  0  0  0  0
 44 45  1  0  0  0  0
M  END
> <ConfClashScore>
0.0570122 

> <ConfOneFourInteractionScore>
-0.967225 

> <ConfScore>
6.34483 

> <ConfScorePBest>
0.0139655 

> <ConfTolerance>
0.629536 

$$$$
L16.****
  PyMOL2.4          3D                             0

 45 46  0  0  0  0  0  0  0  0999 V2000
    0.6072    0.3849    0.3158 C   0  0  0  1  0  0  0  0  0  0  0  0
   -0.0420    0.4739    1.1616 H   0  0  0  1  0  0  0  0  0  0  0  0
   -0.1863    0.9318   -0.7311 O   0  0  0  1  0  0  0  0  0  0  0  0
    1.2526    0.8942    0.3833 C   0  0  0  1  0  0  0  0  0  0  0  0
    1.2011    1.4764    1.2795 H   0  0  0  1  0  0  0  0  0  0  0  0
    1.0231    1.8757   -0.6288 O   0  0  0  1  0  0  0  0  0  0  0  0
    1.2250    2.7475   -0.2814 H   0  0  0  1  0  0  0  0  0  0  0  0
    2.0157    0.6110    0.2498 C   0  0  0  1  0  0  0  0  0  0  0  0
    2.5285    1.2462   -0.4417 H   0  0  0  1  0  0  0  0  0  0  0  0
    2.7079    0.8950    1.4632 O   0  0  0  1  0  0  0  0  0  0  0  0
    2.8427    1.8423    1.5410 H   0  0  0  1  0  0  0  0  0  0  0  0
    2.1333   -0.1806    0.0491 C   0  0  0  1  0  0  0  0  0  0  0  0
    2.8556   -0.6102    0.7114 H   0  0  0  1  0  0  0  0  0  0  0  0
    2.8155   -0.2641   -1.1900 O   0  0  0  1  0  0  0  0  0  0  0  0
    3.5284   -0.9033   -1.1209 H   0  0  0  1  0  0  0  0  0  0  0  0
    1.4880   -0.6898   -0.0184 C   0  0  0  1  0  0  0  0  0  0  0  0
    1.5240   -1.1901   -0.9635 H   0  0  0  1  0  0  0  0  0  0  0  0
    0.7249   -0.4066    0.1150 O   0  0  0  1  0  0  0  0  0  0  0  0
    1.6179   -1.8594    0.9182 C   0  0  0  1  0  0  0  0  0  0  0  0
    0.7086   -2.4228    0.8919 H   0  0  0  1  0  0  0  0  0  0  0  0
    1.7803   -1.4894    1.9090 H   0  0  0  1  0  0  0  0  0  0  0  0
    2.6954   -2.7165    0.5694 O   0  0  0  1  0  0  0  0  0  0  0  0
    2.5874   -3.0146   -0.3367 H   0  0  0  1  0  0  0  0  0  0  0  0
   -1.3027    0.1541   -1.0574 C   0  0  0  1  0  0  0  0  0  0  0  0
   -0.8579   -0.8040   -1.2276 H   0  0  0  1  0  0  0  0  0  0  0  0
   -1.5645    0.4766   -1.7702 C   0  0  0  1  0  0  0  0  0  0  0  0
   -0.8663    1.2071   -2.1220 H   0  0  0  1  0  0  0  0  0  0  0  0
   -1.3780   -0.5710   -2.7125 O   0  0  0  1  0  0  0  0  0  0  0  0
   -1.5033   -0.2292   -3.6008 H   0  0  0  1  0  0  0  0  0  0  0  0
   -2.3343    0.7657   -1.8347 C   0  0  0  1  0  0  0  0  0  0  0  0
   -2.8122    0.4146   -2.7254 H   0  0  0  1  0  0  0  0  0  0  0  0
   -2.1571    2.1552   -2.1140 O   0  0  0  1  0  0  0  0  0  0  0  0
   -2.5466    2.3630   -2.9664 H   0  0  0  1  0  0  0  0  0  0  0  0
   -2.8420    0.7320   -1.1855 C   0  0  0  1  0  0  0  0  0  0  0  0
   -3.7922    0.3259   -1.4632 H   0  0  0  1  0  0  0  0  0  0  0  0
   -3.1673    2.1013   -0.9379 O   0  0  0  1  0  0  0  0  0  0  0  0
   -4.0030    2.3135   -1.3598 H   0  0  0  1  0  0  0  0  0  0  0  0
   -2.5802    0.4096   -0.4727 C   0  0  0  1  0  0  0  0  0  0  0  0
   -2.7902    1.0806    0.3339 H   0  0  0  1  0  0  0  0  0  0  0  0
   -1.8104    0.1205   -0.4082 O   0  0  0  1  0  0  0  0  0  0  0  0
   -3.4303   -0.7682   -0.0907 C   0  0  0  1  0  0  0  0  0  0  0  0
   -3.0466   -1.2224    0.7989 H   0  0  0  1  0  0  0  0  0  0  0  0
   -3.4372   -1.4862   -0.8839 H   0  0  0  1  0  0  0  0  0  0  0  0
   -4.7505   -0.2859    0.1402 O   0  0  0  1  0  0  0  0  0  0  0  0
   -5.0418   -0.5555    1.0143 H   0  0  0  1  0  0  0  0  0  0  0  0
  1  2  1  0  0  0  0
  1  3  1  0  0  0  0
  1  4  1  0  0  0  0
  1 18  1  0  0  0  0
  3 24  1  0  0  0  0
  4  5  1  0  0  0  0
  4  6  1  0  0  0  0
  4  8  1  0  0  0  0
  6  7  1  0  0  0  0
  8  9  1  0  0  0  0
  8 10  1  0  0  0  0
  8 12  1  0  0  0  0
 10 11  1  0  0  0  0
 12 13  1  0  0  0  0
 12 14  1  0  0  0  0
 12 16  1  0  0  0  0
 14 15  1  0  0  0  0
 16 17  1  0  0  0  0
 16 18  1  0  0  0  0
 16 19  1  0  0  0  0
 19 20  1  0  0  0  0
 19 21  1  0  0  0  0
 19 22  1  0  0  0  0
 22 23  1  0  0  0  0
 24 25  1  0  0  0  0
 24 26  1  0  0  0  0
 24 40  1  0  0  0  0
 26 27  1  0  0  0  0
 26 28  1  0  0  0  0
 26 30  1  0  0  0  0
 28 29  1  0  0  0  0
 30 31  1  0  0  0  0
 30 32  1  0  0  0  0
 30 34  1  0  0  0  0
 32 33  1  0  0  0  0
 34 35  1  0  0  0  0
 34 36  1  0  0  0  0
 34 38  1  0  0  0  0
 36 37  1  0  0  0  0
 38 39  1  0  0  0  0
 38 40  1  0  0  0  0
 38 41  1  0  0  0  0
 41 42  1  0  0  0  0
 41 43  1  0  0  0  0
 41 44  1  0  0  0  0
 44 45  1  0  0  0  0
M  END
> <ConfClashScore>
0.0553276 

> <ConfOneFourInteractionScore>
-0.963646 

> <ConfScore>
6.35049 

> <ConfScorePBest>
0.0138625 

> <ConfTolerance>
0.674732 

$$$$
L16.****
  PyMOL2.4          3D                             0

 45 46  0  0  0  0  0  0  0  0999 V2000
    0.7314    0.4092   -0.3226 C   0  0  0  1  0  0  0  0  0  0  0  0
    0.2966    0.6254   -1.2761 H   0  0  0  1  0  0  0  0  0  0  0  0
   -0.3083    0.7578    0.5841 O   0  0  0  1  0  0  0  0  0  0  0  0
    1.3465    0.9276   -0.1401 C   0  0  0  1  0  0  0  0  0  0  0  0
    1.5155    1.6296   -0.9298 H   0  0  0  1  0  0  0  0  0  0  0  0
    0.8489    1.7631    0.9062 O   0  0  0  1  0  0  0  0  0  0  0  0
    1.0237    2.6826    0.6926 H   0  0  0  1  0  0  0  0  0  0  0  0
    2.0561    0.6342    0.1609 C   0  0  0  1  0  0  0  0  0  0  0  0
    2.9022    1.0618   -0.3352 H   0  0  0  1  0  0  0  0  0  0  0  0
    2.1319    1.2282    1.4584 O   0  0  0  1  0  0  0  0  0  0  0  0
    3.0526    1.3439    1.7046 H   0  0  0  1  0  0  0  0  0  0  0  0
    2.1506   -0.1768    0.2793 C   0  0  0  1  0  0  0  0  0  0  0  0
    2.5225   -0.3699    1.2639 H   0  0  0  1  0  0  0  0  0  0  0  0
    3.2443   -0.6102   -0.5319 O   0  0  0  1  0  0  0  0  0  0  0  0
    2.9762   -0.6184   -1.4536 H   0  0  0  1  0  0  0  0  0  0  0  0
    1.5356   -0.6953    0.0968 C   0  0  0  1  0  0  0  0  0  0  0  0
    1.8906   -1.5126   -0.4955 H   0  0  0  1  0  0  0  0  0  0  0  0
    0.8260   -0.4018   -0.2042 O   0  0  0  1  0  0  0  0  0  0  0  0
    1.1201   -1.4034    1.3542 C   0  0  0  1  0  0  0  0  0  0  0  0
    0.6890   -0.7053    2.0410 H   0  0  0  1  0  0  0  0  0  0  0  0
    1.9688   -1.8722    1.8068 H   0  0  0  1  0  0  0  0  0  0  0  0
    0.1591   -2.3850    0.9932 O   0  0  0  1  0  0  0  0  0  0  0  0
   -0.0894   -2.2672    0.0734 H   0  0  0  1  0  0  0  0  0  0  0  0
   -1.5772    0.2307    0.3080 C   0  0  0  1  0  0  0  0  0  0  0  0
   -1.3440   -0.7574   -0.0301 H   0  0  0  1  0  0  0  0  0  0  0  0
   -1.9390    0.2138    1.0492 C   0  0  0  1  0  0  0  0  0  0  0  0
   -1.2281    0.3444    1.8382 H   0  0  0  1  0  0  0  0  0  0  0  0
   -2.3637   -1.1289    1.2419 O   0  0  0  1  0  0  0  0  0  0  0  0
   -3.1395   -1.3001    0.7031 H   0  0  0  1  0  0  0  0  0  0  0  0
   -2.6258    0.6503    1.1836 C   0  0  0  1  0  0  0  0  0  0  0  0
   -3.3717    0.0696    1.6850 H   0  0  0  1  0  0  0  0  0  0  0  0
   -2.2318    1.5789    2.1948 O   0  0  0  1  0  0  0  0  0  0  0  0
   -2.9407    1.6758    2.8348 H   0  0  0  1  0  0  0  0  0  0  0  0
   -2.9504    1.1038    0.5758 C   0  0  0  1  0  0  0  0  0  0  0  0
   -3.1474    2.0986    0.9172 H   0  0  0  1  0  0  0  0  0  0  0  0
   -4.2726    0.5782    0.4432 O   0  0  0  1  0  0  0  0  0  0  0  0
   -4.2445   -0.2350   -0.0662 H   0  0  0  1  0  0  0  0  0  0  0  0
   -2.5885    1.1208   -0.1654 C   0  0  0  1  0  0  0  0  0  0  0  0
   -3.3050    0.9493   -0.9414 H   0  0  0  1  0  0  0  0  0  0  0  0
   -1.9017    0.6842   -0.2997 O   0  0  0  1  0  0  0  0  0  0  0  0
   -2.1715    2.5331   -0.4592 C   0  0  0  1  0  0  0  0  0  0  0  0
   -1.4341    2.8415    0.2521 H   0  0  0  1  0  0  0  0  0  0  0  0
   -3.0236    3.1768   -0.3922 H   0  0  0  1  0  0  0  0  0  0  0  0
   -1.6247    2.6080   -1.7692 O   0  0  0  1  0  0  0  0  0  0  0  0
   -0.6775    2.4571   -1.7302 H   0  0  0  1  0  0  0  0  0  0  0  0
  1  2  1  0  0  0  0
  1  3  1  0  0  0  0
  1  4  1  0  0  0  0
  1 18  1  0  0  0  0
  3 24  1  0  0  0  0
  4  5  1  0  0  0  0
  4  6  1  0  0  0  0
  4  8  1  0  0  0  0
  6  7  1  0  0  0  0
  8  9  1  0  0  0  0
  8 10  1  0  0  0  0
  8 12  1  0  0  0  0
 10 11  1  0  0  0  0
 12 13  1  0  0  0  0
 12 14  1  0  0  0  0
 12 16  1  0  0  0  0
 14 15  1  0  0  0  0
 16 17  1  0  0  0  0
 16 18  1  0  0  0  0
 16 19  1  0  0  0  0
 19 20  1  0  0  0  0
 19 21  1  0  0  0  0
 19 22  1  0  0  0  0
 22 23  1  0  0  0  0
 24 25  1  0  0  0  0
 24 26  1  0  0  0  0
 24 40  1  0  0  0  0
 26 27  1  0  0  0  0
 26 28  1  0  0  0  0
 26 30  1  0  0  0  0
 28 29  1  0  0  0  0
 30 31  1  0  0  0  0
 30 32  1  0  0  0  0
 30 34  1  0  0  0  0
 32 33  1  0  0  0  0
 34 35  1  0  0  0  0
 34 36  1  0  0  0  0
 34 38  1  0  0  0  0
 36 37  1  0  0  0  0
 38 39  1  0  0  0  0
 38 40  1  0  0  0  0
 38 41  1  0  0  0  0
 41 42  1  0  0  0  0
 41 43  1  0  0  0  0
 41 44  1  0  0  0  0
 44 45  1  0  0  0  0
M  END
> <ConfClashScore>
0.0575871 

> <ConfOneFourInteractionScore>
-0.967657 

> <ConfScore>
6.37341 

> <ConfScorePBest>
0.0137595 

> <ConfTolerance>
0.6067 

$$$$
L16.****
  PyMOL2.4          3D                             0

 45 46  0  0  0  0  0  0  0  0999 V2000
    0.6157    0.5491    0.2472 C   0  0  0  1  0  0  0  0  0  0  0  0
   -0.1194    1.0125   -0.3770 H   0  0  0  1  0  0  0  0  0  0  0  0
   -0.0156    0.5677    1.5222 O   0  0  0  1  0  0  0  0  0  0  0  0
    1.2688    1.0416    0.3536 C   0  0  0  1  0  0  0  0  0  0  0  0
    1.1961    1.5422    1.2964 H   0  0  0  1  0  0  0  0  0  0  0  0
    1.1383    2.1374   -0.5558 O   0  0  0  1  0  0  0  0  0  0  0  0
    1.3677    1.8475   -1.4418 H   0  0  0  1  0  0  0  0  0  0  0  0
    2.0307    0.7417    0.2539 C   0  0  0  1  0  0  0  0  0  0  0  0
    2.6107    1.3813   -0.3781 H   0  0  0  1  0  0  0  0  0  0  0  0
    2.6779    0.9125    1.5162 O   0  0  0  1  0  0  0  0  0  0  0  0
    2.3947    0.2201    2.1178 H   0  0  0  1  0  0  0  0  0  0  0  0
    2.1394   -0.0498    0.0482 C   0  0  0  1  0  0  0  0  0  0  0  0
    2.8705   -0.5127    0.6775 H   0  0  0  1  0  0  0  0  0  0  0  0
    2.7671   -0.1173   -1.2336 O   0  0  0  1  0  0  0  0  0  0  0  0
    3.6584   -0.4605   -1.1362 H   0  0  0  1  0  0  0  0  0  0  0  0
    1.4864   -0.5423   -0.0582 C   0  0  0  1  0  0  0  0  0  0  0  0
    1.5616   -1.0624   -0.9903 H   0  0  0  1  0  0  0  0  0  0  0  0
    0.7245   -0.2424    0.0414 O   0  0  0  1  0  0  0  0  0  0  0  0
    1.4896   -1.6912    0.9087 C   0  0  0  1  0  0  0  0  0  0  0  0
    1.2546   -1.3318    1.8888 H   0  0  0  1  0  0  0  0  0  0  0  0
    2.4582   -2.1458    0.9176 H   0  0  0  1  0  0  0  0  0  0  0  0
    0.5210   -2.6518    0.5133 O   0  0  0  1  0  0  0  0  0  0  0  0
    0.4430   -3.3264    1.1919 H   0  0  0  1  0  0  0  0  0  0  0  0
   -1.3424    1.0549    1.4939 C   0  0  0  1  0  0  0  0  0  0  0  0
   -1.6828    0.6922    0.5465 H   0  0  0  1  0  0  0  0  0  0  0  0
   -1.7364    0.6633    2.1039 C   0  0  0  1  0  0  0  0  0  0  0  0
   -1.1568   -0.1478    2.4925 H   0  0  0  1  0  0  0  0  0  0  0  0
   -2.8520   -0.0059    1.5313 O   0  0  0  1  0  0  0  0  0  0  0  0
   -2.8021   -0.9429    1.7338 H   0  0  0  1  0  0  0  0  0  0  0  0
   -2.0985    1.0954    2.7060 C   0  0  0  1  0  0  0  0  0  0  0  0
   -1.8376    0.7089    3.6690 H   0  0  0  1  0  0  0  0  0  0  0  0
   -3.4971    0.8131    2.6409 O   0  0  0  1  0  0  0  0  0  0  0  0
   -3.7277    0.1771    3.3220 H   0  0  0  1  0  0  0  0  0  0  0  0
   -2.0661    1.9196    2.6974 C   0  0  0  1  0  0  0  0  0  0  0  0
   -3.0468    2.3281    2.8243 H   0  0  0  1  0  0  0  0  0  0  0  0
   -1.4546    2.2563    3.9443 O   0  0  0  1  0  0  0  0  0  0  0  0
   -1.7280    3.1381    4.2075 H   0  0  0  1  0  0  0  0  0  0  0  0
   -1.6721    2.3111    2.0874 C   0  0  0  1  0  0  0  0  0  0  0  0
   -0.9562    2.9839    2.5114 H   0  0  0  1  0  0  0  0  0  0  0  0
   -1.3100    1.8790    1.4853 O   0  0  0  1  0  0  0  0  0  0  0  0
   -2.5244    3.2494    1.3936 C   0  0  0  1  0  0  0  0  0  0  0  0
   -3.0019    3.8591    2.1320 H   0  0  0  1  0  0  0  0  0  0  0  0
   -3.2632    2.6846    0.8645 H   0  0  0  1  0  0  0  0  0  0  0  0
   -1.9100    4.1015    0.4774 O   0  0  0  1  0  0  0  0  0  0  0  0
   -2.5420    4.3528   -0.2001 H   0  0  0  1  0  0  0  0  0  0  0  0
  1  2  1  0  0  0  0
  1  3  1  0  0  0  0
  1  4  1  0  0  0  0
  1 18  1  0  0  0  0
  3 24  1  0  0  0  0
  4  5  1  0  0  0  0
  4  6  1  0  0  0  0
  4  8  1  0  0  0  0
  6  7  1  0  0  0  0
  8  9  1  0  0  0  0
  8 10  1  0  0  0  0
  8 12  1  0  0  0  0
 10 11  1  0  0  0  0
 12 13  1  0  0  0  0
 12 14  1  0  0  0  0
 12 16  1  0  0  0  0
 14 15  1  0  0  0  0
 16 17  1  0  0  0  0
 16 18  1  0  0  0  0
 16 19  1  0  0  0  0
 19 20  1  0  0  0  0
 19 21  1  0  0  0  0
 19 22  1  0  0  0  0
 22 23  1  0  0  0  0
 24 25  1  0  0  0  0
 24 26  1  0  0  0  0
 24 40  1  0  0  0  0
 26 27  1  0  0  0  0
 26 28  1  0  0  0  0
 26 30  1  0  0  0  0
 28 29  1  0  0  0  0
 30 31  1  0  0  0  0
 30 32  1  0  0  0  0
 30 34  1  0  0  0  0
 32 33  1  0  0  0  0
 34 35  1  0  0  0  0
 34 36  1  0  0  0  0
 34 38  1  0  0  0  0
 36 37  1  0  0  0  0
 38 39  1  0  0  0  0
 38 40  1  0  0  0  0
 38 41  1  0  0  0  0
 41 42  1  0  0  0  0
 41 43  1  0  0  0  0
 41 44  1  0  0  0  0
 44 45  1  0  0  0  0
M  END
> <ConfClashScore>
0.0563188 

> <ConfOneFourInteractionScore>
-0.966793 

> <ConfScore>
6.38767 

> <ConfScorePBest>
0.0136565 

> <ConfTolerance>
0.662933 

$$$$
L16.****
  PyMOL2.4          3D                             0

 45 46  0  0  0  0  0  0  0  0999 V2000
    0.7305    0.4925   -0.1210 C   0  0  0  1  0  0  0  0  0  0  0  0
   -0.1153    0.8835    0.4049 H   0  0  0  1  0  0  0  0  0  0  0  0
    0.3794    0.7149   -1.4819 O   0  0  0  1  0  0  0  0  0  0  0  0
    1.4049    0.9488    0.0109 C   0  0  0  1  0  0  0  0  0  0  0  0
    1.5431    1.6595   -0.7769 H   0  0  0  1  0  0  0  0  0  0  0  0
    1.0855    1.7951    1.1164 O   0  0  0  1  0  0  0  0  0  0  0  0
    0.3316    2.3452    0.8915 H   0  0  0  1  0  0  0  0  0  0  0  0
    2.1183    0.5823    0.2035 C   0  0  0  1  0  0  0  0  0  0  0  0
    2.9311    0.9744   -0.3713 H   0  0  0  1  0  0  0  0  0  0  0  0
    2.4000    1.0814    1.5086 O   0  0  0  1  0  0  0  0  0  0  0  0
    3.2607    1.5066    1.5102 H   0  0  0  1  0  0  0  0  0  0  0  0
    2.1573   -0.2396    0.2641 C   0  0  0  1  0  0  0  0  0  0  0  0
    2.6770   -0.5472    1.1473 H   0  0  0  1  0  0  0  0  0  0  0  0
    3.0194   -0.7063   -0.7756 O   0  0  0  1  0  0  0  0  0  0  0  0
    2.8434   -0.2162   -1.5821 H   0  0  0  1  0  0  0  0  0  0  0  0
    1.4829   -0.6959    0.1321 C   0  0  0  1  0  0  0  0  0  0  0  0
    1.6970   -1.4768   -0.5674 H   0  0  0  1  0  0  0  0  0  0  0  0
    0.7695   -0.3294   -0.0604 O   0  0  0  1  0  0  0  0  0  0  0  0
    1.1468   -1.4978    1.3593 C   0  0  0  1  0  0  0  0  0  0  0  0
    0.8339   -0.8375    2.1409 H   0  0  0  1  0  0  0  0  0  0  0  0
    2.0117   -2.0420    1.6764 H   0  0  0  1  0  0  0  0  0  0  0  0
    0.0982   -2.4088    1.0629 O   0  0  0  1  0  0  0  0  0  0  0  0
   -0.4540   -2.0463    0.3663 H   0  0  0  1  0  0  0  0  0  0  0  0
   -0.9142    0.3167   -1.7989 C   0  0  0  1  0  0  0  0  0  0  0  0
   -1.4694    0.6011   -0.9295 H   0  0  0  1  0  0  0  0  0  0  0  0
   -1.1154    0.7738   -2.4556 C   0  0  0  1  0  0  0  0  0  0  0  0
   -1.8805    1.4835   -2.2191 H   0  0  0  1  0  0  0  0  0  0  0  0
    0.0076    1.6103   -2.6987 O   0  0  0  1  0  0  0  0  0  0  0  0
   -0.1388    2.4687   -2.2946 H   0  0  0  1  0  0  0  0  0  0  0  0
   -1.2540    0.4120   -3.1838 C   0  0  0  1  0  0  0  0  0  0  0  0
   -2.1692    0.7616   -3.6140 H   0  0  0  1  0  0  0  0  0  0  0  0
   -0.2826    0.9602   -4.0759 O   0  0  0  1  0  0  0  0  0  0  0  0
   -0.6777    1.6756   -4.5796 H   0  0  0  1  0  0  0  0  0  0  0  0
   -1.1911   -0.4074   -3.2545 C   0  0  0  1  0  0  0  0  0  0  0  0
   -2.0429   -0.8148   -3.7578 H   0  0  0  1  0  0  0  0  0  0  0  0
   -0.1418   -0.6737   -4.1874 O   0  0  0  1  0  0  0  0  0  0  0  0
   -0.3809   -1.4271   -4.7321 H   0  0  0  1  0  0  0  0  0  0  0  0
   -0.9899   -0.8645   -2.5978 C   0  0  0  1  0  0  0  0  0  0  0  0
   -0.1871   -1.5289   -2.8404 H   0  0  0  1  0  0  0  0  0  0  0  0
   -0.8514   -0.5027   -1.8696 O   0  0  0  1  0  0  0  0  0  0  0  0
   -2.1029   -1.8442   -2.3463 C   0  0  0  1  0  0  0  0  0  0  0  0
   -1.7931   -2.5274   -1.5833 H   0  0  0  1  0  0  0  0  0  0  0  0
   -2.2972   -2.3825   -3.2504 H   0  0  0  1  0  0  0  0  0  0  0  0
   -3.3028   -1.2070   -1.9281 O   0  0  0  1  0  0  0  0  0  0  0  0
   -4.0211   -1.8439   -1.9292 H   0  0  0  1  0  0  0  0  0  0  0  0
  1  2  1  0  0  0  0
  1  3  1  0  0  0  0
  1  4  1  0  0  0  0
  1 18  1  0  0  0  0
  3 24  1  0  0  0  0
  4  5  1  0  0  0  0
  4  6  1  0  0  0  0
  4  8  1  0  0  0  0
  6  7  1  0  0  0  0
  8  9  1  0  0  0  0
  8 10  1  0  0  0  0
  8 12  1  0  0  0  0
 10 11  1  0  0  0  0
 12 13  1  0  0  0  0
 12 14  1  0  0  0  0
 12 16  1  0  0  0  0
 14 15  1  0  0  0  0
 16 17  1  0  0  0  0
 16 18  1  0  0  0  0
 16 19  1  0  0  0  0
 19 20  1  0  0  0  0
 19 21  1  0  0  0  0
 19 22  1  0  0  0  0
 22 23  1  0  0  0  0
 24 25  1  0  0  0  0
 24 26  1  0  0  0  0
 24 40  1  0  0  0  0
 26 27  1  0  0  0  0
 26 28  1  0  0  0  0
 26 30  1  0  0  0  0
 28 29  1  0  0  0  0
 30 31  1  0  0  0  0
 30 32  1  0  0  0  0
 30 34  1  0  0  0  0
 32 33  1  0  0  0  0
 34 35  1  0  0  0  0
 34 36  1  0  0  0  0
 34 38  1  0  0  0  0
 36 37  1  0  0  0  0
 38 39  1  0  0  0  0
 38 40  1  0  0  0  0
 38 41  1  0  0  0  0
 41 42  1  0  0  0  0
 41 43  1  0  0  0  0
 41 44  1  0  0  0  0
 44 45  1  0  0  0  0
M  END
> <ConfClashScore>
0.0578976 

> <ConfOneFourInteractionScore>
-0.967657 

> <ConfScore>
6.41057 

> <ConfScorePBest>
0.0135535 

> <ConfTolerance>
0.651936 

$$$$
L16.****
  PyMOL2.4          3D                             0

 45 46  0  0  0  0  0  0  0  0999 V2000
    0.5944    0.4685    0.0397 C   0  0  0  1  0  0  0  0  0  0  0  0
    0.0858    1.0838   -0.6727 H   0  0  0  1  0  0  0  0  0  0  0  0
   -0.3709    0.2706    1.0203 O   0  0  0  1  0  0  0  0  0  0  0  0
    1.1982    0.8780    0.4246 C   0  0  0  1  0  0  0  0  0  0  0  0
    0.8545    1.3173    1.3377 H   0  0  0  1  0  0  0  0  0  0  0  0
    1.4156    2.0241   -0.3997 O   0  0  0  1  0  0  0  0  0  0  0  0
    0.8466    2.7405   -0.1089 H   0  0  0  1  0  0  0  0  0  0  0  0
    1.9388    0.5269    0.5177 C   0  0  0  1  0  0  0  0  0  0  0  0
    2.3055    0.6382    1.5167 H   0  0  0  1  0  0  0  0  0  0  0  0
    2.8487    1.3338   -0.2321 O   0  0  0  1  0  0  0  0  0  0  0  0
    3.4216    1.8145    0.3698 H   0  0  0  1  0  0  0  0  0  0  0  0
    2.0754   -0.2327    0.2263 C   0  0  0  1  0  0  0  0  0  0  0  0
    2.5215   -0.8471    0.9802 H   0  0  0  1  0  0  0  0  0  0  0  0
    3.1210   -0.1469   -0.7309 O   0  0  0  1  0  0  0  0  0  0  0  0
    3.8434   -0.7222   -0.4688 H   0  0  0  1  0  0  0  0  0  0  0  0
    1.4716   -0.6422   -0.1586 C   0  0  0  1  0  0  0  0  0  0  0  0
    1.8239   -0.9913   -1.1067 H   0  0  0  1  0  0  0  0  0  0  0  0
    0.7311   -0.2912   -0.2517 O   0  0  0  1  0  0  0  0  0  0  0  0
    1.1362   -1.9476    0.5088 C   0  0  0  1  0  0  0  0  0  0  0  0
    0.7999   -1.7476    1.5047 H   0  0  0  1  0  0  0  0  0  0  0  0
    2.0186   -2.5517    0.5444 H   0  0  0  1  0  0  0  0  0  0  0  0
    0.1211   -2.6637   -0.1798 O   0  0  0  1  0  0  0  0  0  0  0  0
    0.0182   -3.5328    0.2147 H   0  0  0  1  0  0  0  0  0  0  0  0
   -1.7100   -0.0178    0.6768 C   0  0  0  1  0  0  0  0  0  0  0  0
   -1.6587   -0.0594   -0.3911 H   0  0  0  1  0  0  0  0  0  0  0  0
   -2.1306    0.6485    0.9211 C   0  0  0  1  0  0  0  0  0  0  0  0
   -2.4466    1.2331    0.0825 H   0  0  0  1  0  0  0  0  0  0  0  0
   -1.2015    1.5172    1.5553 O   0  0  0  1  0  0  0  0  0  0  0  0
   -1.3637    2.4205    1.2738 H   0  0  0  1  0  0  0  0  0  0  0  0
   -2.7363    0.5740    1.4761 C   0  0  0  1  0  0  0  0  0  0  0  0
   -2.6406    1.3044    2.2522 H   0  0  0  1  0  0  0  0  0  0  0  0
   -3.8929    1.0340    0.7756 O   0  0  0  1  0  0  0  0  0  0  0  0
   -3.9180    0.6360   -0.0977 H   0  0  0  1  0  0  0  0  0  0  0  0
   -2.9207   -0.1676    1.7865 C   0  0  0  1  0  0  0  0  0  0  0  0
   -3.9754   -0.3459    1.7579 H   0  0  0  1  0  0  0  0  0  0  0  0
   -2.6676   -0.1073    3.1916 O   0  0  0  1  0  0  0  0  0  0  0  0
   -3.4572    0.1944    3.6468 H   0  0  0  1  0  0  0  0  0  0  0  0
   -2.5001   -0.8339    1.5422 C   0  0  0  1  0  0  0  0  0  0  0  0
   -2.1544   -1.3832    2.3929 H   0  0  0  1  0  0  0  0  0  0  0  0
   -1.8944   -0.7594    0.9872 O   0  0  0  1  0  0  0  0  0  0  0  0
   -3.4281   -1.8348    0.9162 C   0  0  0  1  0  0  0  0  0  0  0  0
   -4.2527   -2.0151    1.5738 H   0  0  0  1  0  0  0  0  0  0  0  0
   -2.9010   -2.7500    0.7450 H   0  0  0  1  0  0  0  0  0  0  0  0
   -3.9124   -1.3299   -0.3213 O   0  0  0  1  0  0  0  0  0  0  0  0
   -4.4990   -1.9749   -0.7230 H   0  0  0  1  0  0  0  0  0  0  0  0
  1  2  1  0  0  0  0
  1  3  1  0  0  0  0
  1  4  1  0  0  0  0
  1 18  1  0  0  0  0
  3 24  1  0  0  0  0
  4  5  1  0  0  0  0
  4  6  1  0  0  0  0
  4  8  1  0  0  0  0
  6  7  1  0  0  0  0
  8  9  1  0  0  0  0
  8 10  1  0  0  0  0
  8 12  1  0  0  0  0
 10 11  1  0  0  0  0
 12 13  1  0  0  0  0
 12 14  1  0  0  0  0
 12 16  1  0  0  0  0
 14 15  1  0  0  0  0
 16 17  1  0  0  0  0
 16 18  1  0  0  0  0
 16 19  1  0  0  0  0
 19 20  1  0  0  0  0
 19 21  1  0  0  0  0
 19 22  1  0  0  0  0
 22 23  1  0  0  0  0
 24 25  1  0  0  0  0
 24 26  1  0  0  0  0
 24 40  1  0  0  0  0
 26 27  1  0  0  0  0
 26 28  1  0  0  0  0
 26 30  1  0  0  0  0
 28 29  1  0  0  0  0
 30 31  1  0  0  0  0
 30 32  1  0  0  0  0
 30 34  1  0  0  0  0
 32 33  1  0  0  0  0
 34 35  1  0  0  0  0
 34 36  1  0  0  0  0
 34 38  1  0  0  0  0
 36 37  1  0  0  0  0
 38 39  1  0  0  0  0
 38 40  1  0  0  0  0
 38 41  1  0  0  0  0
 41 42  1  0  0  0  0
 41 43  1  0  0  0  0
 41 44  1  0  0  0  0
 44 45  1  0  0  0  0
M  END
> <ConfClashScore>
0.0566433 

> <ConfOneFourInteractionScore>
-0.974268 

> <ConfScore>
6.41318 

> <ConfScorePBest>
0.0134505 

> <ConfTolerance>
0.689181 

$$$$
L16.****
  PyMOL2.4          3D                             0

 45 46  0  0  0  0  0  0  0  0999 V2000
    0.5834    0.4512   -0.0927 C   0  0  0  1  0  0  0  0  0  0  0  0
   -0.0571    0.8518   -0.8505 H   0  0  0  1  0  0  0  0  0  0  0  0
   -0.2023    0.5835    1.0862 O   0  0  0  1  0  0  0  0  0  0  0  0
    1.2395    0.9326    0.0418 C   0  0  0  1  0  0  0  0  0  0  0  0
    1.2276    1.8244   -0.5494 H   0  0  0  1  0  0  0  0  0  0  0  0
    1.0562    1.4319    1.3772 O   0  0  0  1  0  0  0  0  0  0  0  0
    1.0814    2.3915    1.3668 H   0  0  0  1  0  0  0  0  0  0  0  0
    1.9909    0.5971    0.0991 C   0  0  0  1  0  0  0  0  0  0  0  0
    2.5028    0.9585    0.9664 H   0  0  0  1  0  0  0  0  0  0  0  0
    2.7610    1.1742   -0.9570 O   0  0  0  1  0  0  0  0  0  0  0  0
    3.4727    1.6997   -0.5843 H   0  0  0  1  0  0  0  0  0  0  0  0
    2.0860   -0.2188    0.0220 C   0  0  0  1  0  0  0  0  0  0  0  0
    2.8949   -0.4615   -0.6350 H   0  0  0  1  0  0  0  0  0  0  0  0
    2.6013   -0.6106    1.2969 O   0  0  0  1  0  0  0  0  0  0  0  0
    3.5139   -0.3231    1.3758 H   0  0  0  1  0  0  0  0  0  0  0  0
    1.4298   -0.7002   -0.1126 C   0  0  0  1  0  0  0  0  0  0  0  0
    1.4227   -1.5258    0.5680 H   0  0  0  1  0  0  0  0  0  0  0  0
    0.6784   -0.3647   -0.1699 O   0  0  0  1  0  0  0  0  0  0  0  0
    1.5800   -1.4169   -1.4369 C   0  0  0  1  0  0  0  0  0  0  0  0
    2.4996   -1.9633   -1.4646 H   0  0  0  1  0  0  0  0  0  0  0  0
    1.5559   -0.7172   -2.2461 H   0  0  0  1  0  0  0  0  0  0  0  0
    0.4588   -2.3145   -1.5143 O   0  0  0  1  0  0  0  0  0  0  0  0
    0.7745   -3.2102   -1.6542 H   0  0  0  1  0  0  0  0  0  0  0  0
   -1.5363    0.1524    0.9982 C   0  0  0  1  0  0  0  0  0  0  0  0
   -1.9256    0.7939    0.2354 H   0  0  0  1  0  0  0  0  0  0  0  0
   -1.8610    0.3446    1.7318 C   0  0  0  1  0  0  0  0  0  0  0  0
   -1.1311    0.8849    2.2976 H   0  0  0  1  0  0  0  0  0  0  0  0
   -2.8497    1.3492    1.5496 O   0  0  0  1  0  0  0  0  0  0  0  0
   -2.4469    2.1282    1.1590 H   0  0  0  1  0  0  0  0  0  0  0  0
   -2.1800   -0.2470    2.2100 C   0  0  0  1  0  0  0  0  0  0  0  0
   -1.8058   -0.1708    3.2096 H   0  0  0  1  0  0  0  0  0  0  0  0
   -3.5545    0.0999    2.3845 O   0  0  0  1  0  0  0  0  0  0  0  0
   -3.7754    0.0744    3.3184 H   0  0  0  1  0  0  0  0  0  0  0  0
   -2.1738   -1.0310    1.9537 C   0  0  0  1  0  0  0  0  0  0  0  0
   -1.8381   -1.6960    2.7217 H   0  0  0  1  0  0  0  0  0  0  0  0
   -3.5726   -1.3168    1.8923 O   0  0  0  1  0  0  0  0  0  0  0  0
   -3.7031   -2.2654    1.8228 H   0  0  0  1  0  0  0  0  0  0  0  0
   -1.8491   -1.2232    1.2201 C   0  0  0  1  0  0  0  0  0  0  0  0
   -2.5539   -1.7980    0.6563 H   0  0  0  1  0  0  0  0  0  0  0  0
   -1.5302   -0.6316    0.7418 O   0  0  0  1  0  0  0  0  0  0  0  0
   -0.7192   -2.2064    1.3265 C   0  0  0  1  0  0  0  0  0  0  0  0
   -0.3370   -2.4162    0.3494 H   0  0  0  1  0  0  0  0  0  0  0  0
   -1.0760   -3.1113    1.7724 H   0  0  0  1  0  0  0  0  0  0  0  0
    0.3169   -1.6596    2.1317 O   0  0  0  1  0  0  0  0  0  0  0  0
    0.3368   -2.1113    2.9785 H   0  0  0  1  0  0  0  0  0  0  0  0
  1  2  1  0  0  0  0
  1  3  1  0  0  0  0
  1  4  1  0  0  0  0
  1 18  1  0  0  0  0
  3 24  1  0  0  0  0
  4  5  1  0  0  0  0
  4  6  1  0  0  0  0
  4  8  1  0  0  0  0
  6  7  1  0  0  0  0
  8  9  1  0  0  0  0
  8 10  1  0  0  0  0
  8 12  1  0  0  0  0
 10 11  1  0  0  0  0
 12 13  1  0  0  0  0
 12 14  1  0  0  0  0
 12 16  1  0  0  0  0
 14 15  1  0  0  0  0
 16 17  1  0  0  0  0
 16 18  1  0  0  0  0
 16 19  1  0  0  0  0
 19 20  1  0  0  0  0
 19 21  1  0  0  0  0
 19 22  1  0  0  0  0
 22 23  1  0  0  0  0
 24 25  1  0  0  0  0
 24 26  1  0  0  0  0
 24 40  1  0  0  0  0
 26 27  1  0  0  0  0
 26 28  1  0  0  0  0
 26 30  1  0  0  0  0
 28 29  1  0  0  0  0
 30 31  1  0  0  0  0
 30 32  1  0  0  0  0
 30 34  1  0  0  0  0
 32 33  1  0  0  0  0
 34 35  1  0  0  0  0
 34 36  1  0  0  0  0
 34 38  1  0  0  0  0
 36 37  1  0  0  0  0
 38 39  1  0  0  0  0
 38 40  1  0  0  0  0
 38 41  1  0  0  0  0
 41 42  1  0  0  0  0
 41 43  1  0  0  0  0
 41 44  1  0  0  0  0
 44 45  1  0  0  0  0
M  END
> <ConfClashScore>
0.0579075 

> <ConfOneFourInteractionScore>
-0.97112 

> <ConfScore>
6.41354 

> <ConfScorePBest>
0.0133475 

> <ConfTolerance>
0.69869 

$$$$
L16.****
  PyMOL2.4          3D                             0

 45 46  0  0  0  0  0  0  0  0999 V2000
    0.6250    0.4512    0.0739 C   0  0  0  1  0  0  0  0  0  0  0  0
   -0.0192    0.9178   -0.6418 H   0  0  0  1  0  0  0  0  0  0  0  0
   -0.1639    0.4769    1.2578 O   0  0  0  1  0  0  0  0  0  0  0  0
    1.2571    0.9406    0.2770 C   0  0  0  1  0  0  0  0  0  0  0  0
    1.0417    1.5425    1.1350 H   0  0  0  1  0  0  0  0  0  0  0  0
    1.2721    1.8975   -0.7783 O   0  0  0  1  0  0  0  0  0  0  0  0
    0.8699    2.7149   -0.4755 H   0  0  0  1  0  0  0  0  0  0  0  0
    2.0235    0.6361    0.2954 C   0  0  0  1  0  0  0  0  0  0  0  0
    2.7010    1.2724   -0.2348 H   0  0  0  1  0  0  0  0  0  0  0  0
    2.4958    0.7562    1.6385 O   0  0  0  1  0  0  0  0  0  0  0  0
    2.9359    1.6022    1.7490 H   0  0  0  1  0  0  0  0  0  0  0  0
    2.1576   -0.1567    0.1108 C   0  0  0  1  0  0  0  0  0  0  0  0
    2.7855   -0.6217    0.8418 H   0  0  0  1  0  0  0  0  0  0  0  0
    2.9881   -0.1805   -1.0527 O   0  0  0  1  0  0  0  0  0  0  0  0
    3.4295   -1.0308   -1.1140 H   0  0  0  1  0  0  0  0  0  0  0  0
    1.5254   -0.6461   -0.0923 C   0  0  0  1  0  0  0  0  0  0  0  0
    1.7394   -1.1922   -0.9872 H   0  0  0  1  0  0  0  0  0  0  0  0
    0.7590   -0.3416   -0.1107 O   0  0  0  1  0  0  0  0  0  0  0  0
    1.4397   -1.7638    0.9200 C   0  0  0  1  0  0  0  0  0  0  0  0
    2.3519   -2.3224    0.8927 H   0  0  0  1  0  0  0  0  0  0  0  0
    0.6219   -2.4022    0.6582 H   0  0  0  1  0  0  0  0  0  0  0  0
    1.2384   -1.2842    2.2417 O   0  0  0  1  0  0  0  0  0  0  0  0
    1.5575   -1.9353    2.8709 H   0  0  0  1  0  0  0  0  0  0  0  0
   -1.5305    0.2918    1.0283 C   0  0  0  1  0  0  0  0  0  0  0  0
   -1.7466    1.0302    0.2846 H   0  0  0  1  0  0  0  0  0  0  0  0
   -1.8919    0.4660    1.7492 C   0  0  0  1  0  0  0  0  0  0  0  0
   -2.4850    1.3537    1.6781 H   0  0  0  1  0  0  0  0  0  0  0  0
   -0.8613    0.8686    2.6450 O   0  0  0  1  0  0  0  0  0  0  0  0
   -0.7135    1.8133    2.5598 H   0  0  0  1  0  0  0  0  0  0  0  0
   -2.2902   -0.1246    2.1649 C   0  0  0  1  0  0  0  0  0  0  0  0
   -1.9609   -0.1479    3.1827 H   0  0  0  1  0  0  0  0  0  0  0  0
   -3.6433    0.2988    2.3121 O   0  0  0  1  0  0  0  0  0  0  0  0
   -3.6690    1.1267    2.7973 H   0  0  0  1  0  0  0  0  0  0  0  0
   -2.3267   -0.8897    1.8589 C   0  0  0  1  0  0  0  0  0  0  0  0
   -3.3209   -1.2828    1.9039 H   0  0  0  1  0  0  0  0  0  0  0  0
   -1.6444   -1.6813    2.8326 O   0  0  0  1  0  0  0  0  0  0  0  0
   -0.7594   -1.3338    2.9650 H   0  0  0  1  0  0  0  0  0  0  0  0
   -1.9653   -1.0639    1.1380 C   0  0  0  1  0  0  0  0  0  0  0  0
   -1.3620   -1.9439    1.2188 H   0  0  0  1  0  0  0  0  0  0  0  0
   -1.5670   -0.4733    0.7223 O   0  0  0  1  0  0  0  0  0  0  0  0
   -3.0237   -1.5224    0.1728 C   0  0  0  1  0  0  0  0  0  0  0  0
   -3.5857   -2.3317    0.5902 H   0  0  0  1  0  0  0  0  0  0  0  0
   -2.5795   -1.8343   -0.7494 H   0  0  0  1  0  0  0  0  0  0  0  0
   -3.8696   -0.3783   -0.0377 O   0  0  0  1  0  0  0  0  0  0  0  0
   -4.7429   -0.6709   -0.3083 H   0  0  0  1  0  0  0  0  0  0  0  0
  1  2  1  0  0  0  0
  1  3  1  0  0  0  0
  1  4  1  0  0  0  0
  1 18  1  0  0  0  0
  3 24  1  0  0  0  0
  4  5  1  0  0  0  0
  4  6  1  0  0  0  0
  4  8  1  0  0  0  0
  6  7  1  0  0  0  0
  8  9  1  0  0  0  0
  8 10  1  0  0  0  0
  8 12  1  0  0  0  0
 10 11  1  0  0  0  0
 12 13  1  0  0  0  0
 12 14  1  0  0  0  0
 12 16  1  0  0  0  0
 14 15  1  0  0  0  0
 16 17  1  0  0  0  0
 16 18  1  0  0  0  0
 16 19  1  0  0  0  0
 19 20  1  0  0  0  0
 19 21  1  0  0  0  0
 19 22  1  0  0  0  0
 22 23  1  0  0  0  0
 24 25  1  0  0  0  0
 24 26  1  0  0  0  0
 24 40  1  0  0  0  0
 26 27  1  0  0  0  0
 26 28  1  0  0  0  0
 26 30  1  0  0  0  0
 28 29  1  0  0  0  0
 30 31  1  0  0  0  0
 30 32  1  0  0  0  0
 30 34  1  0  0  0  0
 32 33  1  0  0  0  0
 34 35  1  0  0  0  0
 34 36  1  0  0  0  0
 34 38  1  0  0  0  0
 36 37  1  0  0  0  0
 38 39  1  0  0  0  0
 38 40  1  0  0  0  0
 38 41  1  0  0  0  0
 41 42  1  0  0  0  0
 41 43  1  0  0  0  0
 41 44  1  0  0  0  0
 44 45  1  0  0  0  0
M  END
> <ConfClashScore>
0.0577915 

> <ConfOneFourInteractionScore>
-0.974268 

> <ConfScore>
6.42386 

> <ConfScorePBest>
0.0132445 

> <ConfTolerance>
0.586395 

$$$$
L16.****
  PyMOL2.4          3D                             0

 45 46  0  0  0  0  0  0  0  0999 V2000
    0.6475    0.4420   -0.2260 C   0  0  0  1  0  0  0  0  0  0  0  0
    0.0354    0.7339   -1.0537 H   0  0  0  1  0  0  0  0  0  0  0  0
   -0.1732    0.7216    0.9022 O   0  0  0  1  0  0  0  0  0  0  0  0
    1.2849    0.9506   -0.1020 C   0  0  0  1  0  0  0  0  0  0  0  0
    1.3386    1.7047   -0.8591 H   0  0  0  1  0  0  0  0  0  0  0  0
    0.9507    1.7115    1.0598 O   0  0  0  1  0  0  0  0  0  0  0  0
    0.8309    2.6323    0.8163 H   0  0  0  1  0  0  0  0  0  0  0  0
    2.0299    0.6417    0.0708 C   0  0  0  1  0  0  0  0  0  0  0  0
    2.7824    1.0909   -0.5431 H   0  0  0  1  0  0  0  0  0  0  0  0
    2.3921    1.1095    1.3714 O   0  0  0  1  0  0  0  0  0  0  0  0
    2.9316    1.8993    1.2891 H   0  0  0  1  0  0  0  0  0  0  0  0
    2.1374   -0.1749    0.1195 C   0  0  0  1  0  0  0  0  0  0  0  0
    2.6416   -0.4283    1.0286 H   0  0  0  1  0  0  0  0  0  0  0  0
    3.1311   -0.4937   -0.8564 O   0  0  0  1  0  0  0  0  0  0  0  0
    3.6154   -1.2742   -0.5774 H   0  0  0  1  0  0  0  0  0  0  0  0
    1.5000   -0.6834   -0.0046 C   0  0  0  1  0  0  0  0  0  0  0  0
    1.7603   -1.4574   -0.6961 H   0  0  0  1  0  0  0  0  0  0  0  0
    0.7550   -0.3745   -0.1774 O   0  0  0  1  0  0  0  0  0  0  0  0
    1.2715   -1.4764    1.2502 C   0  0  0  1  0  0  0  0  0  0  0  0
    1.0460   -0.8097    2.0562 H   0  0  0  1  0  0  0  0  0  0  0  0
    2.1542   -2.0340    1.4843 H   0  0  0  1  0  0  0  0  0  0  0  0
    0.1848   -2.3710    1.0595 O   0  0  0  1  0  0  0  0  0  0  0  0
    0.3380   -3.1734    1.5637 H   0  0  0  1  0  0  0  0  0  0  0  0
   -1.4468    0.1331    0.8355 C   0  0  0  1  0  0  0  0  0  0  0  0
   -1.5821   -0.0222   -0.2145 H   0  0  0  1  0  0  0  0  0  0  0  0
   -1.9378    0.7276    1.1288 C   0  0  0  1  0  0  0  0  0  0  0  0
   -1.4121    1.6591    1.1557 H   0  0  0  1  0  0  0  0  0  0  0  0
   -2.8680    0.9569    0.0789 O   0  0  0  1  0  0  0  0  0  0  0  0
   -2.4242    1.3915   -0.6531 H   0  0  0  1  0  0  0  0  0  0  0  0
   -2.3484    0.6131    1.8350 C   0  0  0  1  0  0  0  0  0  0  0  0
   -2.2362    1.4537    2.4874 H   0  0  0  1  0  0  0  0  0  0  0  0
   -3.7193    0.7179    1.4478 O   0  0  0  1  0  0  0  0  0  0  0  0
   -4.1170    1.4776    1.8794 H   0  0  0  1  0  0  0  0  0  0  0  0
   -2.2674   -0.0966    2.2474 C   0  0  0  1  0  0  0  0  0  0  0  0
   -3.2233   -0.4908    2.5226 H   0  0  0  1  0  0  0  0  0  0  0  0
   -1.7384    0.3049    3.5127 O   0  0  0  1  0  0  0  0  0  0  0  0
   -0.7866    0.4092    3.4436 H   0  0  0  1  0  0  0  0  0  0  0  0
   -1.7764   -0.6911    1.9540 C   0  0  0  1  0  0  0  0  0  0  0  0
   -1.1415   -1.0891    2.7179 H   0  0  0  1  0  0  0  0  0  0  0  0
   -1.3657   -0.5767    1.2479 O   0  0  0  1  0  0  0  0  0  0  0  0
   -2.5870   -1.8985    1.5787 C   0  0  0  1  0  0  0  0  0  0  0  0
   -3.1037   -2.2730    2.4376 H   0  0  0  1  0  0  0  0  0  0  0  0
   -1.9467   -2.6609    1.1866 H   0  0  0  1  0  0  0  0  0  0  0  0
   -3.5224   -1.4935    0.5880 O   0  0  0  1  0  0  0  0  0  0  0  0
   -3.5324   -2.1362   -0.1251 H   0  0  0  1  0  0  0  0  0  0  0  0
  1  2  1  0  0  0  0
  1  3  1  0  0  0  0
  1  4  1  0  0  0  0
  1 18  1  0  0  0  0
  3 24  1  0  0  0  0
  4  5  1  0  0  0  0
  4  6  1  0  0  0  0
  4  8  1  0  0  0  0
  6  7  1  0  0  0  0
  8  9  1  0  0  0  0
  8 10  1  0  0  0  0
  8 12  1  0  0  0  0
 10 11  1  0  0  0  0
 12 13  1  0  0  0  0
 12 14  1  0  0  0  0
 12 16  1  0  0  0  0
 14 15  1  0  0  0  0
 16 17  1  0  0  0  0
 16 18  1  0  0  0  0
 16 19  1  0  0  0  0
 19 20  1  0  0  0  0
 19 21  1  0  0  0  0
 19 22  1  0  0  0  0
 22 23  1  0  0  0  0
 24 25  1  0  0  0  0
 24 26  1  0  0  0  0
 24 40  1  0  0  0  0
 26 27  1  0  0  0  0
 26 28  1  0  0  0  0
 26 30  1  0  0  0  0
 28 29  1  0  0  0  0
 30 31  1  0  0  0  0
 30 32  1  0  0  0  0
 30 34  1  0  0  0  0
 32 33  1  0  0  0  0
 34 35  1  0  0  0  0
 34 36  1  0  0  0  0
 34 38  1  0  0  0  0
 36 37  1  0  0  0  0
 38 39  1  0  0  0  0
 38 40  1  0  0  0  0
 38 41  1  0  0  0  0
 41 42  1  0  0  0  0
 41 43  1  0  0  0  0
 41 44  1  0  0  0  0
 44 45  1  0  0  0  0
M  END
> <ConfClashScore>
0.0575194 

> <ConfOneFourInteractionScore>
-0.980879 

> <ConfScore>
6.43523 

> <ConfScorePBest>
0.0131415 

> <ConfTolerance>
0.71704 

$$$$
L16.****
  PyMOL2.4          3D                             0

 45 46  0  0  0  0  0  0  0  0999 V2000
    0.5664    0.3501    0.2786 C   0  0  0  1  0  0  0  0  0  0  0  0
   -0.3488    0.4692   -0.2628 H   0  0  0  1  0  0  0  0  0  0  0  0
    0.2188    0.8590    1.5611 O   0  0  0  1  0  0  0  0  0  0  0  0
    1.1371    0.8783    0.0034 C   0  0  0  1  0  0  0  0  0  0  0  0
    0.7447    1.4989   -0.7749 H   0  0  0  1  0  0  0  0  0  0  0  0
    1.2834    1.8002    1.0736 O   0  0  0  1  0  0  0  0  0  0  0  0
    1.4854    2.6703    0.7217 H   0  0  0  1  0  0  0  0  0  0  0  0
    1.8923    0.6059   -0.1859 C   0  0  0  1  0  0  0  0  0  0  0  0
    2.1218    0.9037   -1.1877 H   0  0  0  1  0  0  0  0  0  0  0  0
    2.8490    1.3613    0.5392 O   0  0  0  1  0  0  0  0  0  0  0  0
    2.9956    2.2011    0.0977 H   0  0  0  1  0  0  0  0  0  0  0  0
    2.0766   -0.1937   -0.1000 C   0  0  0  1  0  0  0  0  0  0  0  0
    2.5075   -0.5654   -1.0062 H   0  0  0  1  0  0  0  0  0  0  0  0
    3.1933   -0.2617    0.7887 O   0  0  0  1  0  0  0  0  0  0  0  0
    3.7270   -1.0304    0.5745 H   0  0  0  1  0  0  0  0  0  0  0  0
    1.5060   -0.7218    0.1752 C   0  0  0  1  0  0  0  0  0  0  0  0
    1.9011   -1.2966    0.9866 H   0  0  0  1  0  0  0  0  0  0  0  0
    0.7507   -0.4495    0.3645 O   0  0  0  1  0  0  0  0  0  0  0  0
    1.2552   -1.8038   -0.8354 C   0  0  0  1  0  0  0  0  0  0  0  0
    2.1884   -2.2301   -1.1390 H   0  0  0  1  0  0  0  0  0  0  0  0
    0.7590   -1.3871   -1.6869 H   0  0  0  1  0  0  0  0  0  0  0  0
    0.4390   -2.8146   -0.2613 O   0  0  0  1  0  0  0  0  0  0  0  0
    0.9821   -3.4023    0.2689 H   0  0  0  1  0  0  0  0  0  0  0  0
   -0.8148    0.1544    2.1856 C   0  0  0  1  0  0  0  0  0  0  0  0
   -1.5415    0.0617    1.4057 H   0  0  0  1  0  0  0  0  0  0  0  0
   -1.0744    0.6514    2.7908 C   0  0  0  1  0  0  0  0  0  0  0  0
   -2.0791    0.9701    2.6070 H   0  0  0  1  0  0  0  0  0  0  0  0
   -0.3598    1.8751    2.6823 O   0  0  0  1  0  0  0  0  0  0  0  0
   -0.9592    2.6104    2.8294 H   0  0  0  1  0  0  0  0  0  0  0  0
   -0.9839    0.4247    3.5787 C   0  0  0  1  0  0  0  0  0  0  0  0
   -1.8676    0.6029    4.1551 H   0  0  0  1  0  0  0  0  0  0  0  0
   -0.0566    1.3594    4.1324 O   0  0  0  1  0  0  0  0  0  0  0  0
   -0.5288    1.9982    4.6714 H   0  0  0  1  0  0  0  0  0  0  0  0
   -0.6335   -0.2995    3.7607 C   0  0  0  1  0  0  0  0  0  0  0  0
    0.1356   -0.1691    4.4930 H   0  0  0  1  0  0  0  0  0  0  0  0
   -1.6265   -1.0065    4.5085 O   0  0  0  1  0  0  0  0  0  0  0  0
   -1.5386   -0.7926    5.4402 H   0  0  0  1  0  0  0  0  0  0  0  0
   -0.3739   -0.7964    3.1555 C   0  0  0  1  0  0  0  0  0  0  0  0
   -0.7660   -1.7816    3.2990 H   0  0  0  1  0  0  0  0  0  0  0  0
   -0.4644   -0.5698    2.3676 O   0  0  0  1  0  0  0  0  0  0  0  0
    1.0986   -1.0624    3.2853 C   0  0  0  1  0  0  0  0  0  0  0  0
    1.4172   -1.7359    2.5174 H   0  0  0  1  0  0  0  0  0  0  0  0
    1.3097   -1.4882    4.2440 H   0  0  0  1  0  0  0  0  0  0  0  0
    1.7710    0.1825    3.1486 O   0  0  0  1  0  0  0  0  0  0  0  0
    2.5249    0.2064    3.7424 H   0  0  0  1  0  0  0  0  0  0  0  0
  1  2  1  0  0  0  0
  1  3  1  0  0  0  0
  1  4  1  0  0  0  0
  1 18  1  0  0  0  0
  3 24  1  0  0  0  0
  4  5  1  0  0  0  0
  4  6  1  0  0  0  0
  4  8  1  0  0  0  0
  6  7  1  0  0  0  0
  8  9  1  0  0  0  0
  8 10  1  0  0  0  0
  8 12  1  0  0  0  0
 10 11  1  0  0  0  0
 12 13  1  0  0  0  0
 12 14  1  0  0  0  0
 12 16  1  0  0  0  0
 14 15  1  0  0  0  0
 16 17  1  0  0  0  0
 16 18  1  0  0  0  0
 16 19  1  0  0  0  0
 19 20  1  0  0  0  0
 19 21  1  0  0  0  0
 19 22  1  0  0  0  0
 22 23  1  0  0  0  0
 24 25  1  0  0  0  0
 24 26  1  0  0  0  0
 24 40  1  0  0  0  0
 26 27  1  0  0  0  0
 26 28  1  0  0  0  0
 26 30  1  0  0  0  0
 28 29  1  0  0  0  0
 30 31  1  0  0  0  0
 30 32  1  0  0  0  0
 30 34  1  0  0  0  0
 32 33  1  0  0  0  0
 34 35  1  0  0  0  0
 34 36  1  0  0  0  0
 34 38  1  0  0  0  0
 36 37  1  0  0  0  0
 38 39  1  0  0  0  0
 38 40  1  0  0  0  0
 38 41  1  0  0  0  0
 41 42  1  0  0  0  0
 41 43  1  0  0  0  0
 41 44  1  0  0  0  0
 44 45  1  0  0  0  0
M  END
> <ConfClashScore>
0.0583367 

> <ConfOneFourInteractionScore>
-0.970689 

> <ConfScore>
6.43729 

> <ConfScorePBest>
0.0130385 

> <ConfTolerance>
0.850252 

$$$$
L16.****
  PyMOL2.4          3D                             0

 45 46  0  0  0  0  0  0  0  0999 V2000
    0.6563    0.3737    0.2204 C   0  0  0  1  0  0  0  0  0  0  0  0
   -0.1023    0.5560    0.9526 H   0  0  0  1  0  0  0  0  0  0  0  0
    0.0988    0.9561   -0.9521 O   0  0  0  1  0  0  0  0  0  0  0  0
    1.3184    0.8505    0.3416 C   0  0  0  1  0  0  0  0  0  0  0  0
    1.1976    1.4656    1.2088 H   0  0  0  1  0  0  0  0  0  0  0  0
    1.3354    1.8191   -0.7102 O   0  0  0  1  0  0  0  0  0  0  0  0
    1.3599    2.7015   -0.3329 H   0  0  0  1  0  0  0  0  0  0  0  0
    2.0737    0.5203    0.3139 C   0  0  0  1  0  0  0  0  0  0  0  0
    2.7411    1.1106   -0.2785 H   0  0  0  1  0  0  0  0  0  0  0  0
    2.5723    0.7319    1.6360 O   0  0  0  1  0  0  0  0  0  0  0  0
    2.8633    1.6422    1.7269 H   0  0  0  1  0  0  0  0  0  0  0  0
    2.1668   -0.2858    0.1651 C   0  0  0  1  0  0  0  0  0  0  0  0
    2.8577   -0.7358    0.8471 H   0  0  0  1  0  0  0  0  0  0  0  0
    2.8656   -0.3736   -1.0781 O   0  0  0  1  0  0  0  0  0  0  0  0
    2.5513    0.3124   -1.6715 H   0  0  0  1  0  0  0  0  0  0  0  0
    1.5048   -0.7626    0.0438 C   0  0  0  1  0  0  0  0  0  0  0  0
    1.6255   -1.3766   -0.8242 H   0  0  0  1  0  0  0  0  0  0  0  0
    0.7495   -0.4324    0.0716 O   0  0  0  1  0  0  0  0  0  0  0  0
    1.4272   -1.7981    1.1318 C   0  0  0  1  0  0  0  0  0  0  0  0
    1.2302   -1.3262    2.0717 H   0  0  0  1  0  0  0  0  0  0  0  0
    2.3496   -2.3373    1.1893 H   0  0  0  1  0  0  0  0  0  0  0  0
    0.3672   -2.6843    0.8025 O   0  0  0  1  0  0  0  0  0  0  0  0
    0.4912   -3.5174    1.2632 H   0  0  0  1  0  0  0  0  0  0  0  0
   -1.2121    0.5324   -1.2261 C   0  0  0  1  0  0  0  0  0  0  0  0
   -1.1406   -0.5264   -1.0887 H   0  0  0  1  0  0  0  0  0  0  0  0
   -1.3052    0.7221   -2.0236 C   0  0  0  1  0  0  0  0  0  0  0  0
   -1.3190   -0.1594   -2.6300 H   0  0  0  1  0  0  0  0  0  0  0  0
   -0.1027    1.3526   -2.4439 O   0  0  0  1  0  0  0  0  0  0  0  0
    0.4468    0.7173   -2.9086 H   0  0  0  1  0  0  0  0  0  0  0  0
   -1.8933    1.2516   -2.2563 C   0  0  0  1  0  0  0  0  0  0  0  0
   -1.5011    1.9944   -2.9191 H   0  0  0  1  0  0  0  0  0  0  0  0
   -2.6760    0.4487   -3.1410 O   0  0  0  1  0  0  0  0  0  0  0  0
   -3.3089    1.0039   -3.6023 H   0  0  0  1  0  0  0  0  0  0  0  0
   -2.3882    1.5912   -1.6905 C   0  0  0  1  0  0  0  0  0  0  0  0
   -3.4142    1.5160   -1.9846 H   0  0  0  1  0  0  0  0  0  0  0  0
   -2.1448    2.9930   -1.8244 O   0  0  0  1  0  0  0  0  0  0  0  0
   -2.9494    3.4782   -1.6275 H   0  0  0  1  0  0  0  0  0  0  0  0
   -2.2951    1.4015   -0.8930 C   0  0  0  1  0  0  0  0  0  0  0  0
   -2.2818    2.2828   -0.2864 H   0  0  0  1  0  0  0  0  0  0  0  0
   -1.7070    0.8719   -0.6603 O   0  0  0  1  0  0  0  0  0  0  0  0
   -3.5443    0.7140   -0.3907 C   0  0  0  1  0  0  0  0  0  0  0  0
   -3.7098   -0.1671   -0.9748 H   0  0  0  1  0  0  0  0  0  0  0  0
   -4.3733    1.3805   -0.5070 H   0  0  0  1  0  0  0  0  0  0  0  0
   -3.4464    0.3422    0.9778 O   0  0  0  1  0  0  0  0  0  0  0  0
   -3.6969   -0.5791    1.0783 H   0  0  0  1  0  0  0  0  0  0  0  0
  1  2  1  0  0  0  0
  1  3  1  0  0  0  0
  1  4  1  0  0  0  0
  1 18  1  0  0  0  0
  3 24  1  0  0  0  0
  4  5  1  0  0  0  0
  4  6  1  0  0  0  0
  4  8  1  0  0  0  0
  6  7  1  0  0  0  0
  8  9  1  0  0  0  0
  8 10  1  0  0  0  0
  8 12  1  0  0  0  0
 10 11  1  0  0  0  0
 12 13  1  0  0  0  0
 12 14  1  0  0  0  0
 12 16  1  0  0  0  0
 14 15  1  0  0  0  0
 16 17  1  0  0  0  0
 16 18  1  0  0  0  0
 16 19  1  0  0  0  0
 19 20  1  0  0  0  0
 19 21  1  0  0  0  0
 19 22  1  0  0  0  0
 22 23  1  0  0  0  0
 24 25  1  0  0  0  0
 24 26  1  0  0  0  0
 24 40  1  0  0  0  0
 26 27  1  0  0  0  0
 26 28  1  0  0  0  0
 26 30  1  0  0  0  0
 28 29  1  0  0  0  0
 30 31  1  0  0  0  0
 30 32  1  0  0  0  0
 30 34  1  0  0  0  0
 32 33  1  0  0  0  0
 34 35  1  0  0  0  0
 34 36  1  0  0  0  0
 34 38  1  0  0  0  0
 36 37  1  0  0  0  0
 38 39  1  0  0  0  0
 38 40  1  0  0  0  0
 38 41  1  0  0  0  0
 41 42  1  0  0  0  0
 41 43  1  0  0  0  0
 41 44  1  0  0  0  0
 44 45  1  0  0  0  0
M  END
> <ConfClashScore>
0.0585956 

> <ConfOneFourInteractionScore>
-0.974268 

> <ConfScore>
6.45 

> <ConfScorePBest>
0.0129355 

> <ConfTolerance>
0.67441 

$$$$
L16.****
  PyMOL2.4          3D                             0

 45 46  0  0  0  0  0  0  0  0999 V2000
    0.6130    0.3094    0.4778 C   0  0  0  1  0  0  0  0  0  0  0  0
   -0.3323    0.6327    0.0948 H   0  0  0  1  0  0  0  0  0  0  0  0
    0.3708    0.2864    1.8806 O   0  0  0  1  0  0  0  0  0  0  0  0
    1.1812    0.8999    0.3841 C   0  0  0  1  0  0  0  0  0  0  0  0
    1.2749    1.5170    1.2532 H   0  0  0  1  0  0  0  0  0  0  0  0
    0.6687    1.8093   -0.5929 O   0  0  0  1  0  0  0  0  0  0  0  0
    1.0539    2.6778   -0.4557 H   0  0  0  1  0  0  0  0  0  0  0  0
    1.9121    0.7177    0.0480 C   0  0  0  1  0  0  0  0  0  0  0  0
    2.1730    1.4232   -0.7130 H   0  0  0  1  0  0  0  0  0  0  0  0
    2.8457    1.0368    1.0815 O   0  0  0  1  0  0  0  0  0  0  0  0
    3.4245    1.7425    0.7838 H   0  0  0  1  0  0  0  0  0  0  0  0
    2.0746   -0.0540   -0.1941 C   0  0  0  1  0  0  0  0  0  0  0  0
    2.5115   -0.0778   -1.1705 H   0  0  0  1  0  0  0  0  0  0  0  0
    3.1388   -0.5369    0.6273 O   0  0  0  1  0  0  0  0  0  0  0  0
    3.6121   -1.2312    0.1631 H   0  0  0  1  0  0  0  0  0  0  0  0
    1.5064   -0.6445   -0.1003 C   0  0  0  1  0  0  0  0  0  0  0  0
    1.9380   -1.4795    0.4110 H   0  0  0  1  0  0  0  0  0  0  0  0
    0.7755   -0.4623    0.2357 O   0  0  0  1  0  0  0  0  0  0  0  0
    1.1207   -1.2914   -1.4021 C   0  0  0  1  0  0  0  0  0  0  0  0
    2.0102   -1.4974   -1.9600 H   0  0  0  1  0  0  0  0  0  0  0  0
    0.5028   -0.6131   -1.9527 H   0  0  0  1  0  0  0  0  0  0  0  0
    0.4090   -2.5062   -1.2143 O   0  0  0  1  0  0  0  0  0  0  0  0
    0.1604   -2.8673   -2.0683 H   0  0  0  1  0  0  0  0  0  0  0  0
   -0.9311    0.6982    2.1877 C   0  0  0  1  0  0  0  0  0  0  0  0
   -1.4956    0.2619    1.3903 H   0  0  0  1  0  0  0  0  0  0  0  0
   -1.0962    0.3189    2.9015 C   0  0  0  1  0  0  0  0  0  0  0  0
   -0.3270   -0.3887    3.1308 H   0  0  0  1  0  0  0  0  0  0  0  0
   -2.2005   -0.5360    2.6372 O   0  0  0  1  0  0  0  0  0  0  0  0
   -1.9238   -1.2455    2.0527 H   0  0  0  1  0  0  0  0  0  0  0  0
   -1.2844    0.7624    3.5710 C   0  0  0  1  0  0  0  0  0  0  0  0
   -2.1918    0.3974    4.0049 H   0  0  0  1  0  0  0  0  0  0  0  0
   -0.3322    0.4099    4.5756 O   0  0  0  1  0  0  0  0  0  0  0  0
    0.4509    0.9570    4.4809 H   0  0  0  1  0  0  0  0  0  0  0  0
   -1.3072    1.5857    3.5259 C   0  0  0  1  0  0  0  0  0  0  0  0
   -0.7881    2.0403    4.3436 H   0  0  0  1  0  0  0  0  0  0  0  0
   -2.6633    1.9519    3.7850 O   0  0  0  1  0  0  0  0  0  0  0  0
   -2.6978    2.8642    4.0817 H   0  0  0  1  0  0  0  0  0  0  0  0
   -1.1421    1.9650    2.8121 C   0  0  0  1  0  0  0  0  0  0  0  0
   -1.9099    2.6742    2.5831 H   0  0  0  1  0  0  0  0  0  0  0  0
   -0.9539    1.5215    2.1426 O   0  0  0  1  0  0  0  0  0  0  0  0
    0.0433    2.8603    2.9224 C   0  0  0  1  0  0  0  0  0  0  0  0
    0.9226    2.2506    2.9284 H   0  0  0  1  0  0  0  0  0  0  0  0
   -0.0270    3.3947    3.8467 H   0  0  0  1  0  0  0  0  0  0  0  0
    0.1674    3.8016    1.8780 O   0  0  0  1  0  0  0  0  0  0  0  0
   -0.6136    4.3594    1.8550 H   0  0  0  1  0  0  0  0  0  0  0  0
  1  2  1  0  0  0  0
  1  3  1  0  0  0  0
  1  4  1  0  0  0  0
  1 18  1  0  0  0  0
  3 24  1  0  0  0  0
  4  5  1  0  0  0  0
  4  6  1  0  0  0  0
  4  8  1  0  0  0  0
  6  7  1  0  0  0  0
  8  9  1  0  0  0  0
  8 10  1  0  0  0  0
  8 12  1  0  0  0  0
 10 11  1  0  0  0  0
 12 13  1  0  0  0  0
 12 14  1  0  0  0  0
 12 16  1  0  0  0  0
 14 15  1  0  0  0  0
 16 17  1  0  0  0  0
 16 18  1  0  0  0  0
 16 19  1  0  0  0  0
 19 20  1  0  0  0  0
 19 21  1  0  0  0  0
 19 22  1  0  0  0  0
 22 23  1  0  0  0  0
 24 25  1  0  0  0  0
 24 26  1  0  0  0  0
 24 40  1  0  0  0  0
 26 27  1  0  0  0  0
 26 28  1  0  0  0  0
 26 30  1  0  0  0  0
 28 29  1  0  0  0  0
 30 31  1  0  0  0  0
 30 32  1  0  0  0  0
 30 34  1  0  0  0  0
 32 33  1  0  0  0  0
 34 35  1  0  0  0  0
 34 36  1  0  0  0  0
 34 38  1  0  0  0  0
 36 37  1  0  0  0  0
 38 39  1  0  0  0  0
 38 40  1  0  0  0  0
 38 41  1  0  0  0  0
 41 42  1  0  0  0  0
 41 43  1  0  0  0  0
 41 44  1  0  0  0  0
 44 45  1  0  0  0  0
M  END
> <ConfClashScore>
0.056873 

> <ConfOneFourInteractionScore>
-0.966793 

> <ConfScore>
6.45435 

> <ConfScorePBest>
0.0128325 

> <ConfTolerance>
0.68844 

$$$$
L16.****
  PyMOL2.4          3D                             0

 45 46  0  0  0  0  0  0  0  0999 V2000
    0.6447    0.5329    0.1062 C   0  0  0  1  0  0  0  0  0  0  0  0
   -0.0611    0.6596    0.9004 H   0  0  0  1  0  0  0  0  0  0  0  0
   -0.0395    1.1001   -1.0061 O   0  0  0  1  0  0  0  0  0  0  0  0
    1.2971    1.0294    0.1970 C   0  0  0  1  0  0  0  0  0  0  0  0
    1.1698    1.9386   -0.3526 H   0  0  0  1  0  0  0  0  0  0  0  0
    1.1902    1.4824    1.5508 O   0  0  0  1  0  0  0  0  0  0  0  0
    1.1096    0.7260    2.1364 H   0  0  0  1  0  0  0  0  0  0  0  0
    2.0592    0.7285    0.1022 C   0  0  0  1  0  0  0  0  0  0  0  0
    2.7226    1.0586    0.8742 H   0  0  0  1  0  0  0  0  0  0  0  0
    2.5767    1.3827   -1.0537 O   0  0  0  1  0  0  0  0  0  0  0  0
    3.5362    1.3710   -1.0259 H   0  0  0  1  0  0  0  0  0  0  0  0
    2.1689   -0.0679   -0.0830 C   0  0  0  1  0  0  0  0  0  0  0  0
    2.8571   -0.1837   -0.8940 H   0  0  0  1  0  0  0  0  0  0  0  0
    2.9252   -0.5690    1.0224 O   0  0  0  1  0  0  0  0  0  0  0  0
    2.3887   -0.5385    1.8179 H   0  0  0  1  0  0  0  0  0  0  0  0
    1.5165   -0.5644   -0.1738 C   0  0  0  1  0  0  0  0  0  0  0  0
    1.6446   -1.4795    0.3657 H   0  0  0  1  0  0  0  0  0  0  0  0
    0.7543   -0.2636   -0.0791 O   0  0  0  1  0  0  0  0  0  0  0  0
    1.4022   -1.0682   -1.5931 C   0  0  0  1  0  0  0  0  0  0  0  0
    1.4515   -0.2532   -2.2846 H   0  0  0  1  0  0  0  0  0  0  0  0
    0.4823   -1.5972   -1.7296 H   0  0  0  1  0  0  0  0  0  0  0  0
    2.5226   -1.9515   -1.7757 O   0  0  0  1  0  0  0  0  0  0  0  0
    3.1214   -1.5791   -2.4271 H   0  0  0  1  0  0  0  0  0  0  0  0
   -1.3915    0.7264   -1.0290 C   0  0  0  1  0  0  0  0  0  0  0  0
   -1.3249   -0.3393   -1.0977 H   0  0  0  1  0  0  0  0  0  0  0  0
   -1.6786    1.0446   -1.7339 C   0  0  0  1  0  0  0  0  0  0  0  0
   -1.9163    0.2504   -2.4104 H   0  0  0  1  0  0  0  0  0  0  0  0
   -0.5747    1.6467   -2.3965 O   0  0  0  1  0  0  0  0  0  0  0  0
   -0.5879    1.4049   -3.3254 H   0  0  0  1  0  0  0  0  0  0  0  0
   -2.3003    1.5865   -1.7194 C   0  0  0  1  0  0  0  0  0  0  0  0
   -2.0951    2.4358   -2.3371 H   0  0  0  1  0  0  0  0  0  0  0  0
   -3.3764    0.9577   -2.4172 O   0  0  0  1  0  0  0  0  0  0  0  0
   -3.9365    1.6287   -2.8141 H   0  0  0  1  0  0  0  0  0  0  0  0
   -2.6345    1.8098   -0.9992 C   0  0  0  1  0  0  0  0  0  0  0  0
   -3.7039    1.8110   -1.0345 H   0  0  0  1  0  0  0  0  0  0  0  0
   -2.3249    3.2028   -0.9215 O   0  0  0  1  0  0  0  0  0  0  0  0
   -3.1135    3.7172   -1.1088 H   0  0  0  1  0  0  0  0  0  0  0  0
   -2.3474    1.4916   -0.2942 C   0  0  0  1  0  0  0  0  0  0  0  0
   -2.1380    2.2741    0.4049 H   0  0  0  1  0  0  0  0  0  0  0  0
   -1.7257    0.9497   -0.3087 O   0  0  0  1  0  0  0  0  0  0  0  0
   -3.4389    0.7539    0.4264 C   0  0  0  1  0  0  0  0  0  0  0  0
   -4.0276    0.2092   -0.2818 H   0  0  0  1  0  0  0  0  0  0  0  0
   -4.0604    1.4548    0.9436 H   0  0  0  1  0  0  0  0  0  0  0  0
   -2.8679   -0.1514    1.3619 O   0  0  0  1  0  0  0  0  0  0  0  0
   -2.2587   -0.7387    0.9086 H   0  0  0  1  0  0  0  0  0  0  0  0
  1  2  1  0  0  0  0
  1  3  1  0  0  0  0
  1  4  1  0  0  0  0
  1 18  1  0  0  0  0
  3 24  1  0  0  0  0
  4  5  1  0  0  0  0
  4  6  1  0  0  0  0
  4  8  1  0  0  0  0
  6  7  1  0  0  0  0
  8  9  1  0  0  0  0
  8 10  1  0  0  0  0
  8 12  1  0  0  0  0
 10 11  1  0  0  0  0
 12 13  1  0  0  0  0
 12 14  1  0  0  0  0
 12 16  1  0  0  0  0
 14 15  1  0  0  0  0
 16 17  1  0  0  0  0
 16 18  1  0  0  0  0
 16 19  1  0  0  0  0
 19 20  1  0  0  0  0
 19 21  1  0  0  0  0
 19 22  1  0  0  0  0
 22 23  1  0  0  0  0
 24 25  1  0  0  0  0
 24 26  1  0  0  0  0
 24 40  1  0  0  0  0
 26 27  1  0  0  0  0
 26 28  1  0  0  0  0
 26 30  1  0  0  0  0
 28 29  1  0  0  0  0
 30 31  1  0  0  0  0
 30 32  1  0  0  0  0
 30 34  1  0  0  0  0
 32 33  1  0  0  0  0
 34 35  1  0  0  0  0
 34 36  1  0  0  0  0
 34 38  1  0  0  0  0
 36 37  1  0  0  0  0
 38 39  1  0  0  0  0
 38 40  1  0  0  0  0
 38 41  1  0  0  0  0
 41 42  1  0  0  0  0
 41 43  1  0  0  0  0
 41 44  1  0  0  0  0
 44 45  1  0  0  0  0
M  END
> <ConfClashScore>
0.0554121 

> <ConfOneFourInteractionScore>
-0.961992 

> <ConfScore>
6.46374 

> <ConfScorePBest>
0.0127295 

> <ConfTolerance>
0.693302 

$$$$
L16.****
  PyMOL2.4          3D                             0

 45 46  0  0  0  0  0  0  0  0999 V2000
    0.6660    0.5229   -0.2853 C   0  0  0  1  0  0  0  0  0  0  0  0
    0.3766    0.9877   -1.2046 H   0  0  0  1  0  0  0  0  0  0  0  0
   -0.5088    0.6894    0.5001 O   0  0  0  1  0  0  0  0  0  0  0  0
    1.2483    0.9731    0.0870 C   0  0  0  1  0  0  0  0  0  0  0  0
    1.4316    1.8972   -0.4202 H   0  0  0  1  0  0  0  0  0  0  0  0
    0.5875    1.3984    1.2813 O   0  0  0  1  0  0  0  0  0  0  0  0
    0.5784    2.3577    1.3182 H   0  0  0  1  0  0  0  0  0  0  0  0
    1.9454    0.6136    0.3424 C   0  0  0  1  0  0  0  0  0  0  0  0
    2.1926    0.9040    1.3421 H   0  0  0  1  0  0  0  0  0  0  0  0
    2.9643    1.2611   -0.4209 O   0  0  0  1  0  0  0  0  0  0  0  0
    3.6602    1.5652    0.1663 H   0  0  0  1  0  0  0  0  0  0  0  0
    2.0600   -0.1950    0.2255 C   0  0  0  1  0  0  0  0  0  0  0  0
    2.3460   -0.6591    1.1463 H   0  0  0  1  0  0  0  0  0  0  0  0
    3.2765   -0.2776   -0.5201 O   0  0  0  1  0  0  0  0  0  0  0  0
    3.8771   -0.8885   -0.0869 H   0  0  0  1  0  0  0  0  0  0  0  0
    1.4777   -0.6451   -0.1468 C   0  0  0  1  0  0  0  0  0  0  0  0
    1.9013   -1.2473   -0.9232 H   0  0  0  1  0  0  0  0  0  0  0  0
    0.7806   -0.2857   -0.4022 O   0  0  0  1  0  0  0  0  0  0  0  0
    1.0018   -1.6971    0.8132 C   0  0  0  1  0  0  0  0  0  0  0  0
    1.7912   -2.4023    0.9688 H   0  0  0  1  0  0  0  0  0  0  0  0
    0.1569   -2.1953    0.3855 H   0  0  0  1  0  0  0  0  0  0  0  0
    0.6223   -1.1533    2.0693 O   0  0  0  1  0  0  0  0  0  0  0  0
   -0.3113   -0.9301    2.0530 H   0  0  0  1  0  0  0  0  0  0  0  0
   -1.7383    0.6685   -0.1976 C   0  0  0  1  0  0  0  0  0  0  0  0
   -1.5549   -0.0217   -0.9944 H   0  0  0  1  0  0  0  0  0  0  0  0
   -2.2748    0.3821    0.3599 C   0  0  0  1  0  0  0  0  0  0  0  0
   -1.7543   -0.1042    1.1583 H   0  0  0  1  0  0  0  0  0  0  0  0
   -2.9297   -0.7147   -0.2633 O   0  0  0  1  0  0  0  0  0  0  0  0
   -2.3021   -1.4288   -0.3967 H   0  0  0  1  0  0  0  0  0  0  0  0
   -2.8608    0.8780    0.6618 C   0  0  0  1  0  0  0  0  0  0  0  0
   -2.9216    0.8096    1.7279 H   0  0  0  1  0  0  0  0  0  0  0  0
   -4.0771    0.2617    0.2493 O   0  0  0  1  0  0  0  0  0  0  0  0
   -4.4099   -0.2957    0.9565 H   0  0  0  1  0  0  0  0  0  0  0  0
   -2.9095    1.6605    0.4056 C   0  0  0  1  0  0  0  0  0  0  0  0
   -3.9090    1.8773    0.0912 H   0  0  0  1  0  0  0  0  0  0  0  0
   -2.7998    2.4791    1.5718 O   0  0  0  1  0  0  0  0  0  0  0  0
   -3.6615    2.8406    1.7918 H   0  0  0  1  0  0  0  0  0  0  0  0
   -2.3730    1.9468   -0.1518 C   0  0  0  1  0  0  0  0  0  0  0  0
   -1.9419    2.8656    0.1872 H   0  0  0  1  0  0  0  0  0  0  0  0
   -1.7870    1.4510   -0.4538 O   0  0  0  1  0  0  0  0  0  0  0  0
   -3.0529    2.4007   -1.3970 C   0  0  0  1  0  0  0  0  0  0  0  0
   -3.8319    3.0811   -1.1229 H   0  0  0  1  0  0  0  0  0  0  0  0
   -3.4791    1.5439   -1.8758 H   0  0  0  1  0  0  0  0  0  0  0  0
   -2.2087    3.0486   -2.3242 O   0  0  0  1  0  0  0  0  0  0  0  0
   -1.6252    2.4040   -2.7311 H   0  0  0  1  0  0  0  0  0  0  0  0
  1  2  1  0  0  0  0
  1  3  1  0  0  0  0
  1  4  1  0  0  0  0
  1 18  1  0  0  0  0
  3 24  1  0  0  0  0
  4  5  1  0  0  0  0
  4  6  1  0  0  0  0
  4  8  1  0  0  0  0
  6  7  1  0  0  0  0
  8  9  1  0  0  0  0
  8 10  1  0  0  0  0
  8 12  1  0  0  0  0
 10 11  1  0  0  0  0
 12 13  1  0  0  0  0
 12 14  1  0  0  0  0
 12 16  1  0  0  0  0
 14 15  1  0  0  0  0
 16 17  1  0  0  0  0
 16 18  1  0  0  0  0
 16 19  1  0  0  0  0
 19 20  1  0  0  0  0
 19 21  1  0  0  0  0
 19 22  1  0  0  0  0
 22 23  1  0  0  0  0
 24 25  1  0  0  0  0
 24 26  1  0  0  0  0
 24 40  1  0  0  0  0
 26 27  1  0  0  0  0
 26 28  1  0  0  0  0
 26 30  1  0  0  0  0
 28 29  1  0  0  0  0
 30 31  1  0  0  0  0
 30 32  1  0  0  0  0
 30 34  1  0  0  0  0
 32 33  1  0  0  0  0
 34 35  1  0  0  0  0
 34 36  1  0  0  0  0
 34 38  1  0  0  0  0
 36 37  1  0  0  0  0
 38 39  1  0  0  0  0
 38 40  1  0  0  0  0
 38 41  1  0  0  0  0
 41 42  1  0  0  0  0
 41 43  1  0  0  0  0
 41 44  1  0  0  0  0
 44 45  1  0  0  0  0
M  END
> <ConfClashScore>
0.0570018 

> <ConfOneFourInteractionScore>
-0.973533 

> <ConfScore>
6.46858 

> <ConfScorePBest>
0.0126265 

> <ConfTolerance>
0.647133 

$$$$
L16.****
  PyMOL2.4          3D                             0

 45 46  0  0  0  0  0  0  0  0999 V2000
    0.6231    0.4938   -0.1314 C   0  0  0  1  0  0  0  0  0  0  0  0
    0.0512    0.9530   -0.9105 H   0  0  0  1  0  0  0  0  0  0  0  0
   -0.2229    0.6505    1.0019 O   0  0  0  1  0  0  0  0  0  0  0  0
    1.2762    0.9530    0.0760 C   0  0  0  1  0  0  0  0  0  0  0  0
    1.3217    1.8650   -0.4817 H   0  0  0  1  0  0  0  0  0  0  0  0
    0.9933    1.4112    1.3990 O   0  0  0  1  0  0  0  0  0  0  0  0
    0.7782    2.3465    1.3750 H   0  0  0  1  0  0  0  0  0  0  0  0
    2.0176    0.6006    0.1570 C   0  0  0  1  0  0  0  0  0  0  0  0
    2.4902    0.9023    1.0684 H   0  0  0  1  0  0  0  0  0  0  0  0
    2.8695    1.1884   -0.8280 O   0  0  0  1  0  0  0  0  0  0  0  0
    3.2443    2.0021   -0.4831 H   0  0  0  1  0  0  0  0  0  0  0  0
    2.1058   -0.2099    0.0308 C   0  0  0  1  0  0  0  0  0  0  0  0
    2.9355   -0.4095   -0.6147 H   0  0  0  1  0  0  0  0  0  0  0  0
    2.6032   -0.6495    1.2964 O   0  0  0  1  0  0  0  0  0  0  0  0
    3.5203   -0.9181    1.2046 H   0  0  0  1  0  0  0  0  0  0  0  0
    1.4527   -0.6690   -0.1766 C   0  0  0  1  0  0  0  0  0  0  0  0
    1.3700   -1.4755    0.5216 H   0  0  0  1  0  0  0  0  0  0  0  0
    0.7113   -0.3167   -0.2576 O   0  0  0  1  0  0  0  0  0  0  0  0
    1.7218   -1.4431   -1.4350 C   0  0  0  1  0  0  0  0  0  0  0  0
    2.7570   -1.7110   -1.4731 H   0  0  0  1  0  0  0  0  0  0  0  0
    1.4778   -0.8385   -2.2834 H   0  0  0  1  0  0  0  0  0  0  0  0
    0.9283   -2.6210   -1.4508 O   0  0  0  1  0  0  0  0  0  0  0  0
    0.7554   -2.9031   -0.5496 H   0  0  0  1  0  0  0  0  0  0  0  0
   -1.5836    0.4799    0.7835 C   0  0  0  1  0  0  0  0  0  0  0  0
   -1.6232   -0.4489    0.2538 H   0  0  0  1  0  0  0  0  0  0  0  0
   -1.9296    0.4219    1.5302 C   0  0  0  1  0  0  0  0  0  0  0  0
   -2.3584   -0.5491    1.6646 H   0  0  0  1  0  0  0  0  0  0  0  0
   -0.8758    0.4027    2.4837 O   0  0  0  1  0  0  0  0  0  0  0  0
   -0.7944   -0.4794    2.8536 H   0  0  0  1  0  0  0  0  0  0  0  0
   -2.4544    1.0035    1.7885 C   0  0  0  1  0  0  0  0  0  0  0  0
   -2.2057    1.3334    2.7755 H   0  0  0  1  0  0  0  0  0  0  0  0
   -3.6703    0.2885    2.0133 O   0  0  0  1  0  0  0  0  0  0  0  0
   -4.1168    0.1444    1.1758 H   0  0  0  1  0  0  0  0  0  0  0  0
   -2.6327    1.6432    1.2992 C   0  0  0  1  0  0  0  0  0  0  0  0
   -3.6906    1.7923    1.2398 H   0  0  0  1  0  0  0  0  0  0  0  0
   -2.2134    2.8046    2.0185 O   0  0  0  1  0  0  0  0  0  0  0  0
   -2.8881    3.0471    2.6569 H   0  0  0  1  0  0  0  0  0  0  0  0
   -2.2867    1.7012    0.5525 C   0  0  0  1  0  0  0  0  0  0  0  0
   -1.8262    2.6617    0.4511 H   0  0  0  1  0  0  0  0  0  0  0  0
   -1.7619    1.1196    0.2942 O   0  0  0  1  0  0  0  0  0  0  0  0
   -3.2652    1.7491   -0.5886 C   0  0  0  1  0  0  0  0  0  0  0  0
   -3.7593    0.8025   -0.6572 H   0  0  0  1  0  0  0  0  0  0  0  0
   -2.7275    1.9378   -1.4942 H   0  0  0  1  0  0  0  0  0  0  0  0
   -4.2459    2.7643   -0.4205 O   0  0  0  1  0  0  0  0  0  0  0  0
   -4.9171    2.4626    0.1959 H   0  0  0  1  0  0  0  0  0  0  0  0
  1  2  1  0  0  0  0
  1  3  1  0  0  0  0
  1  4  1  0  0  0  0
  1 18  1  0  0  0  0
  3 24  1  0  0  0  0
  4  5  1  0  0  0  0
  4  6  1  0  0  0  0
  4  8  1  0  0  0  0
  6  7  1  0  0  0  0
  8  9  1  0  0  0  0
  8 10  1  0  0  0  0
  8 12  1  0  0  0  0
 10 11  1  0  0  0  0
 12 13  1  0  0  0  0
 12 14  1  0  0  0  0
 12 16  1  0  0  0  0
 14 15  1  0  0  0  0
 16 17  1  0  0  0  0
 16 18  1  0  0  0  0
 16 19  1  0  0  0  0
 19 20  1  0  0  0  0
 19 21  1  0  0  0  0
 19 22  1  0  0  0  0
 22 23  1  0  0  0  0
 24 25  1  0  0  0  0
 24 26  1  0  0  0  0
 24 40  1  0  0  0  0
 26 27  1  0  0  0  0
 26 28  1  0  0  0  0
 26 30  1  0  0  0  0
 28 29  1  0  0  0  0
 30 31  1  0  0  0  0
 30 32  1  0  0  0  0
 30 34  1  0  0  0  0
 32 33  1  0  0  0  0
 34 35  1  0  0  0  0
 34 36  1  0  0  0  0
 34 38  1  0  0  0  0
 36 37  1  0  0  0  0
 38 39  1  0  0  0  0
 38 40  1  0  0  0  0
 38 41  1  0  0  0  0
 41 42  1  0  0  0  0
 41 43  1  0  0  0  0
 41 44  1  0  0  0  0
 44 45  1  0  0  0  0
M  END
> <ConfClashScore>
0.0573888 

> <ConfOneFourInteractionScore>
-0.955147 

> <ConfScore>
6.47304 

> <ConfScorePBest>
0.0125235 

> <ConfTolerance>
0.758282 

$$$$
L16.****
  PyMOL2.4          3D                             0

 45 46  0  0  0  0  0  0  0  0999 V2000
    0.6160    0.4158    0.1573 C   0  0  0  1  0  0  0  0  0  0  0  0
   -0.0430    0.9774   -0.4713 H   0  0  0  1  0  0  0  0  0  0  0  0
   -0.1471    0.2969    1.3534 O   0  0  0  1  0  0  0  0  0  0  0  0
    1.2647    0.8739    0.3803 C   0  0  0  1  0  0  0  0  0  0  0  0
    1.1280    1.1902    1.3933 H   0  0  0  1  0  0  0  0  0  0  0  0
    1.1847    2.1133   -0.2959 O   0  0  0  1  0  0  0  0  0  0  0  0
    0.6533    2.7253    0.2185 H   0  0  0  1  0  0  0  0  0  0  0  0
    2.0283    0.5728    0.2989 C   0  0  0  1  0  0  0  0  0  0  0  0
    2.5723    0.6914    1.2126 H   0  0  0  1  0  0  0  0  0  0  0  0
    2.7143    1.4837   -0.5620 O   0  0  0  1  0  0  0  0  0  0  0  0
    3.1672    2.1448   -0.0334 H   0  0  0  1  0  0  0  0  0  0  0  0
    2.1431   -0.1855   -0.0052 C   0  0  0  1  0  0  0  0  0  0  0  0
    2.9064   -0.1956   -0.7549 H   0  0  0  1  0  0  0  0  0  0  0  0
    2.7467   -0.9367    1.0509 O   0  0  0  1  0  0  0  0  0  0  0  0
    3.5692   -1.3223    0.7403 H   0  0  0  1  0  0  0  0  0  0  0  0
    1.4944   -0.6436   -0.2282 C   0  0  0  1  0  0  0  0  0  0  0  0
    1.5605   -1.6227    0.1981 H   0  0  0  1  0  0  0  0  0  0  0  0
    0.7308   -0.3425   -0.1468 O   0  0  0  1  0  0  0  0  0  0  0  0
    1.5733   -0.9616   -1.6939 C   0  0  0  1  0  0  0  0  0  0  0  0
    1.7209   -0.0627   -2.2553 H   0  0  0  1  0  0  0  0  0  0  0  0
    0.6701   -1.4380   -2.0134 H   0  0  0  1  0  0  0  0  0  0  0  0
    2.6759   -1.8371   -1.8817 O   0  0  0  1  0  0  0  0  0  0  0  0
    2.4950   -2.6768   -1.4530 H   0  0  0  1  0  0  0  0  0  0  0  0
   -1.5068    0.6449    1.1449 C   0  0  0  1  0  0  0  0  0  0  0  0
   -1.7099    0.2110    0.1881 H   0  0  0  1  0  0  0  0  0  0  0  0
   -1.8854    0.2330    1.7512 C   0  0  0  1  0  0  0  0  0  0  0  0
   -1.2336   -0.4948    2.1875 H   0  0  0  1  0  0  0  0  0  0  0  0
   -2.8773   -0.5833    1.1431 O   0  0  0  1  0  0  0  0  0  0  0  0
   -3.1595   -1.2600    1.7628 H   0  0  0  1  0  0  0  0  0  0  0  0
   -2.3023    0.6442    2.3322 C   0  0  0  1  0  0  0  0  0  0  0  0
   -3.2878    0.2383    2.4275 H   0  0  0  1  0  0  0  0  0  0  0  0
   -1.7258    0.2768    3.5863 O   0  0  0  1  0  0  0  0  0  0  0  0
   -2.3063    0.5534    4.2991 H   0  0  0  1  0  0  0  0  0  0  0  0
   -2.3402    1.4678    2.3060 C   0  0  0  1  0  0  0  0  0  0  0  0
   -2.0834    1.8842    3.2576 H   0  0  0  1  0  0  0  0  0  0  0  0
   -3.7162    1.8364    2.1920 O   0  0  0  1  0  0  0  0  0  0  0  0
   -3.9582    2.4029    2.9283 H   0  0  0  1  0  0  0  0  0  0  0  0
   -1.9617    1.8796    1.6996 C   0  0  0  1  0  0  0  0  0  0  0  0
   -2.6223    2.5959    1.2574 H   0  0  0  1  0  0  0  0  0  0  0  0
   -1.5448    1.4684    1.1187 O   0  0  0  1  0  0  0  0  0  0  0  0
   -0.9222    2.7785    2.3106 C   0  0  0  1  0  0  0  0  0  0  0  0
   -1.4138    3.5044    2.9241 H   0  0  0  1  0  0  0  0  0  0  0  0
   -0.3927    3.2750    1.5245 H   0  0  0  1  0  0  0  0  0  0  0  0
    0.0118    2.0638    3.1091 O   0  0  0  1  0  0  0  0  0  0  0  0
    0.7521    2.6354    3.3252 H   0  0  0  1  0  0  0  0  0  0  0  0
  1  2  1  0  0  0  0
  1  3  1  0  0  0  0
  1  4  1  0  0  0  0
  1 18  1  0  0  0  0
  3 24  1  0  0  0  0
  4  5  1  0  0  0  0
  4  6  1  0  0  0  0
  4  8  1  0  0  0  0
  6  7  1  0  0  0  0
  8  9  1  0  0  0  0
  8 10  1  0  0  0  0
  8 12  1  0  0  0  0
 10 11  1  0  0  0  0
 12 13  1  0  0  0  0
 12 14  1  0  0  0  0
 12 16  1  0  0  0  0
 14 15  1  0  0  0  0
 16 17  1  0  0  0  0
 16 18  1  0  0  0  0
 16 19  1  0  0  0  0
 19 20  1  0  0  0  0
 19 21  1  0  0  0  0
 19 22  1  0  0  0  0
 22 23  1  0  0  0  0
 24 25  1  0  0  0  0
 24 26  1  0  0  0  0
 24 40  1  0  0  0  0
 26 27  1  0  0  0  0
 26 28  1  0  0  0  0
 26 30  1  0  0  0  0
 28 29  1  0  0  0  0
 30 31  1  0  0  0  0
 30 32  1  0  0  0  0
 30 34  1  0  0  0  0
 32 33  1  0  0  0  0
 34 35  1  0  0  0  0
 34 36  1  0  0  0  0
 34 38  1  0  0  0  0
 36 37  1  0  0  0  0
 38 39  1  0  0  0  0
 38 40  1  0  0  0  0
 38 41  1  0  0  0  0
 41 42  1  0  0  0  0
 41 43  1  0  0  0  0
 41 44  1  0  0  0  0
 44 45  1  0  0  0  0
M  END
> <ConfClashScore>
0.0565619 

> <ConfOneFourInteractionScore>
-0.963972 

> <ConfScore>
6.477 

> <ConfScorePBest>
0.0124205 

> <ConfTolerance>
0.779091 

$$$$
L16.****
  PyMOL2.4          3D                             0

 45 46  0  0  0  0  0  0  0  0999 V2000
    0.7231    0.5360   -0.2062 C   0  0  0  1  0  0  0  0  0  0  0  0
   -0.1790    0.9614    0.1812 H   0  0  0  1  0  0  0  0  0  0  0  0
    0.5859    0.7101   -1.6117 O   0  0  0  1  0  0  0  0  0  0  0  0
    1.3886    0.9958   -0.0446 C   0  0  0  1  0  0  0  0  0  0  0  0
    1.5866    1.6646   -0.8560 H   0  0  0  1  0  0  0  0  0  0  0  0
    1.0863    1.9099    1.0149 O   0  0  0  1  0  0  0  0  0  0  0  0
    0.4865    1.4921    1.6372 H   0  0  0  1  0  0  0  0  0  0  0  0
    2.0860    0.6352    0.2082 C   0  0  0  1  0  0  0  0  0  0  0  0
    2.8962    0.9549   -0.4133 H   0  0  0  1  0  0  0  0  0  0  0  0
    2.4605    1.2086    1.4622 O   0  0  0  1  0  0  0  0  0  0  0  0
    3.3124    1.6425    1.3745 H   0  0  0  1  0  0  0  0  0  0  0  0
    2.1180   -0.1841    0.2994 C   0  0  0  1  0  0  0  0  0  0  0  0
    2.6013   -0.4736    1.2090 H   0  0  0  1  0  0  0  0  0  0  0  0
    3.0155   -0.6716   -0.7015 O   0  0  0  1  0  0  0  0  0  0  0  0
    2.7764   -0.3011   -1.5543 H   0  0  0  1  0  0  0  0  0  0  0  0
    1.4525   -0.6439    0.1378 C   0  0  0  1  0  0  0  0  0  0  0  0
    1.7157   -1.4291   -0.5397 H   0  0  0  1  0  0  0  0  0  0  0  0
    0.7551   -0.2834   -0.1150 O   0  0  0  1  0  0  0  0  0  0  0  0
    0.9954   -1.4495    1.3298 C   0  0  0  1  0  0  0  0  0  0  0  0
    0.6241   -0.7961    2.0915 H   0  0  0  1  0  0  0  0  0  0  0  0
    1.8112   -2.0230    1.7176 H   0  0  0  1  0  0  0  0  0  0  0  0
   -0.0395   -2.3160    0.8875 O   0  0  0  1  0  0  0  0  0  0  0  0
    0.2454   -3.2282    0.9791 H   0  0  0  1  0  0  0  0  0  0  0  0
   -0.6071    0.1910   -2.1310 C   0  0  0  1  0  0  0  0  0  0  0  0
   -1.0160   -0.3238   -1.2868 H   0  0  0  1  0  0  0  0  0  0  0  0
   -0.3721   -0.3407   -2.7164 C   0  0  0  1  0  0  0  0  0  0  0  0
    0.6750   -0.5493   -2.6462 H   0  0  0  1  0  0  0  0  0  0  0  0
   -0.9484   -1.6107   -2.3934 O   0  0  0  1  0  0  0  0  0  0  0  0
   -1.9055   -1.5472   -2.4309 H   0  0  0  1  0  0  0  0  0  0  0  0
   -0.5966   -0.2175   -3.5005 C   0  0  0  1  0  0  0  0  0  0  0  0
   -0.9930   -1.1121   -3.9336 H   0  0  0  1  0  0  0  0  0  0  0  0
    0.6018   -0.0278   -4.2541 O   0  0  0  1  0  0  0  0  0  0  0  0
    0.9831    0.8268   -4.0398 H   0  0  0  1  0  0  0  0  0  0  0  0
   -1.0565    0.4380   -3.6984 C   0  0  0  1  0  0  0  0  0  0  0  0
   -0.6512    0.9515   -4.5452 H   0  0  0  1  0  0  0  0  0  0  0  0
   -2.2460   -0.1381   -4.2417 O   0  0  0  1  0  0  0  0  0  0  0  0
   -2.7778   -0.5047   -3.5315 H   0  0  0  1  0  0  0  0  0  0  0  0
   -1.2915    0.9697   -3.1130 C   0  0  0  1  0  0  0  0  0  0  0  0
   -2.3526    1.0989   -3.1597 H   0  0  0  1  0  0  0  0  0  0  0  0
   -1.0669    0.8465   -2.3290 O   0  0  0  1  0  0  0  0  0  0  0  0
   -0.8378    2.3839   -3.3349 C   0  0  0  1  0  0  0  0  0  0  0  0
   -1.2031    3.0030   -2.5424 H   0  0  0  1  0  0  0  0  0  0  0  0
   -1.2200    2.7375   -4.2696 H   0  0  0  1  0  0  0  0  0  0  0  0
    0.5827    2.4330   -3.3563 O   0  0  0  1  0  0  0  0  0  0  0  0
    0.8694    3.1901   -3.8723 H   0  0  0  1  0  0  0  0  0  0  0  0
  1  2  1  0  0  0  0
  1  3  1  0  0  0  0
  1  4  1  0  0  0  0
  1 18  1  0  0  0  0
  3 24  1  0  0  0  0
  4  5  1  0  0  0  0
  4  6  1  0  0  0  0
  4  8  1  0  0  0  0
  6  7  1  0  0  0  0
  8  9  1  0  0  0  0
  8 10  1  0  0  0  0
  8 12  1  0  0  0  0
 10 11  1  0  0  0  0
 12 13  1  0  0  0  0
 12 14  1  0  0  0  0
 12 16  1  0  0  0  0
 14 15  1  0  0  0  0
 16 17  1  0  0  0  0
 16 18  1  0  0  0  0
 16 19  1  0  0  0  0
 19 20  1  0  0  0  0
 19 21  1  0  0  0  0
 19 22  1  0  0  0  0
 22 23  1  0  0  0  0
 24 25  1  0  0  0  0
 24 26  1  0  0  0  0
 24 40  1  0  0  0  0
 26 27  1  0  0  0  0
 26 28  1  0  0  0  0
 26 30  1  0  0  0  0
 28 29  1  0  0  0  0
 30 31  1  0  0  0  0
 30 32  1  0  0  0  0
 30 34  1  0  0  0  0
 32 33  1  0  0  0  0
 34 35  1  0  0  0  0
 34 36  1  0  0  0  0
 34 38  1  0  0  0  0
 36 37  1  0  0  0  0
 38 39  1  0  0  0  0
 38 40  1  0  0  0  0
 38 41  1  0  0  0  0
 41 42  1  0  0  0  0
 41 43  1  0  0  0  0
 41 44  1  0  0  0  0
 44 45  1  0  0  0  0
M  END
> <ConfClashScore>
0.0580547 

> <ConfOneFourInteractionScore>
-0.980879 

> <ConfScore>
6.50316 

> <ConfScorePBest>
0.0123175 

> <ConfTolerance>
0.75811 

$$$$
L16.****
  PyMOL2.4          3D                             0

 45 46  0  0  0  0  0  0  0  0999 V2000
    0.6967    0.3327    0.6163 C   0  0  0  1  0  0  0  0  0  0  0  0
    0.3658    0.4231    1.6298 H   0  0  0  1  0  0  0  0  0  0  0  0
   -0.4543    0.7208   -0.1249 O   0  0  0  1  0  0  0  0  0  0  0  0
    1.2695    0.8956    0.4281 C   0  0  0  1  0  0  0  0  0  0  0  0
    1.5002    1.5202    1.2657 H   0  0  0  1  0  0  0  0  0  0  0  0
    0.6372    1.8100   -0.4689 O   0  0  0  1  0  0  0  0  0  0  0  0
    0.9501    2.7002   -0.2922 H   0  0  0  1  0  0  0  0  0  0  0  0
    1.9497    0.6696    0.0199 C   0  0  0  1  0  0  0  0  0  0  0  0
    2.1589    1.3347   -0.7918 H   0  0  0  1  0  0  0  0  0  0  0  0
    3.0367    0.9283    0.9103 O   0  0  0  1  0  0  0  0  0  0  0  0
    3.1465    1.8762    1.0151 H   0  0  0  1  0  0  0  0  0  0  0  0
    2.0570   -0.1183   -0.1998 C   0  0  0  1  0  0  0  0  0  0  0  0
    2.3680   -0.2017   -1.2202 H   0  0  0  1  0  0  0  0  0  0  0  0
    3.2170   -0.5604    0.5067 O   0  0  0  1  0  0  0  0  0  0  0  0
    3.7794   -1.0657   -0.0849 H   0  0  0  1  0  0  0  0  0  0  0  0
    1.4842   -0.6812   -0.0116 C   0  0  0  1  0  0  0  0  0  0  0  0
    1.9403   -1.5186    0.4738 H   0  0  0  1  0  0  0  0  0  0  0  0
    0.8040   -0.4552    0.3965 O   0  0  0  1  0  0  0  0  0  0  0  0
    0.9562   -1.3353   -1.2559 C   0  0  0  1  0  0  0  0  0  0  0  0
    0.7579   -0.5868   -1.9944 H   0  0  0  1  0  0  0  0  0  0  0  0
    0.0517   -1.8588   -1.0262 H   0  0  0  1  0  0  0  0  0  0  0  0
    1.9181   -2.2528   -1.7595 O   0  0  0  1  0  0  0  0  0  0  0  0
    1.5589   -2.7051   -2.5262 H   0  0  0  1  0  0  0  0  0  0  0  0
   -1.6469    0.8957    0.6140 C   0  0  0  1  0  0  0  0  0  0  0  0
   -1.4862    0.2540    1.4550 H   0  0  0  1  0  0  0  0  0  0  0  0
   -2.2233    0.5869    0.1110 C   0  0  0  1  0  0  0  0  0  0  0  0
   -1.7904    0.0134   -0.6818 H   0  0  0  1  0  0  0  0  0  0  0  0
   -2.8020   -0.4176    0.9333 O   0  0  0  1  0  0  0  0  0  0  0  0
   -3.0691   -1.1623    0.3896 H   0  0  0  1  0  0  0  0  0  0  0  0
   -2.8357    1.0684   -0.1602 C   0  0  0  1  0  0  0  0  0  0  0  0
   -3.7843    0.5893   -0.0351 H   0  0  0  1  0  0  0  0  0  0  0  0
   -2.6799    1.0494   -1.5803 O   0  0  0  1  0  0  0  0  0  0  0  0
   -3.5443    1.0588   -1.9977 H   0  0  0  1  0  0  0  0  0  0  0  0
   -2.8710    1.8590    0.0723 C   0  0  0  1  0  0  0  0  0  0  0  0
   -2.9738    2.4857   -0.7888 H   0  0  0  1  0  0  0  0  0  0  0  0
   -4.1396    2.0422    0.7043 O   0  0  0  1  0  0  0  0  0  0  0  0
   -4.7306    2.5073    0.1076 H   0  0  0  1  0  0  0  0  0  0  0  0
   -2.2946    2.1678    0.5753 C   0  0  0  1  0  0  0  0  0  0  0  0
   -2.7485    2.6930    1.3896 H   0  0  0  1  0  0  0  0  0  0  0  0
   -1.6822    1.6863    0.8464 O   0  0  0  1  0  0  0  0  0  0  0  0
   -1.5557    3.2916   -0.1184 C   0  0  0  1  0  0  0  0  0  0  0  0
   -0.6958    3.5483    0.4644 H   0  0  0  1  0  0  0  0  0  0  0  0
   -2.2059    4.1386   -0.1878 H   0  0  0  1  0  0  0  0  0  0  0  0
   -1.1299    2.9349   -1.4269 O   0  0  0  1  0  0  0  0  0  0  0  0
   -0.8079    3.7158   -1.8831 H   0  0  0  1  0  0  0  0  0  0  0  0
  1  2  1  0  0  0  0
  1  3  1  0  0  0  0
  1  4  1  0  0  0  0
  1 18  1  0  0  0  0
  3 24  1  0  0  0  0
  4  5  1  0  0  0  0
  4  6  1  0  0  0  0
  4  8  1  0  0  0  0
  6  7  1  0  0  0  0
  8  9  1  0  0  0  0
  8 10  1  0  0  0  0
  8 12  1  0  0  0  0
 10 11  1  0  0  0  0
 12 13  1  0  0  0  0
 12 14  1  0  0  0  0
 12 16  1  0  0  0  0
 14 15  1  0  0  0  0
 16 17  1  0  0  0  0
 16 18  1  0  0  0  0
 16 19  1  0  0  0  0
 19 20  1  0  0  0  0
 19 21  1  0  0  0  0
 19 22  1  0  0  0  0
 22 23  1  0  0  0  0
 24 25  1  0  0  0  0
 24 26  1  0  0  0  0
 24 40  1  0  0  0  0
 26 27  1  0  0  0  0
 26 28  1  0  0  0  0
 26 30  1  0  0  0  0
 28 29  1  0  0  0  0
 30 31  1  0  0  0  0
 30 32  1  0  0  0  0
 30 34  1  0  0  0  0
 32 33  1  0  0  0  0
 34 35  1  0  0  0  0
 34 36  1  0  0  0  0
 34 38  1  0  0  0  0
 36 37  1  0  0  0  0
 38 39  1  0  0  0  0
 38 40  1  0  0  0  0
 38 41  1  0  0  0  0
 41 42  1  0  0  0  0
 41 43  1  0  0  0  0
 41 44  1  0  0  0  0
 44 45  1  0  0  0  0
M  END
> <ConfClashScore>
0.0545343 

> <ConfOneFourInteractionScore>
-0.963972 

> <ConfScore>
6.51783 

> <ConfScorePBest>
0.0122145 

> <ConfTolerance>
0.953706 

$$$$
L16.****
  PyMOL2.4          3D                             0

 45 46  0  0  0  0  0  0  0  0999 V2000
    0.6238    0.4939    0.1492 C   0  0  0  1  0  0  0  0  0  0  0  0
   -0.0991    0.8893   -0.5335 H   0  0  0  1  0  0  0  0  0  0  0  0
   -0.0531    0.5758    1.3981 O   0  0  0  1  0  0  0  0  0  0  0  0
    1.2769    0.9929    0.2191 C   0  0  0  1  0  0  0  0  0  0  0  0
    1.1718    1.6683    1.0423 H   0  0  0  1  0  0  0  0  0  0  0  0
    1.1120    1.8500   -0.9012 O   0  0  0  1  0  0  0  0  0  0  0  0
    1.3970    2.7372   -0.6705 H   0  0  0  1  0  0  0  0  0  0  0  0
    2.0392    0.6809    0.1764 C   0  0  0  1  0  0  0  0  0  0  0  0
    2.6658    1.2572   -0.4718 H   0  0  0  1  0  0  0  0  0  0  0  0
    2.5845    0.9718    1.4645 O   0  0  0  1  0  0  0  0  0  0  0  0
    2.1686    0.4104    2.1229 H   0  0  0  1  0  0  0  0  0  0  0  0
    2.1484   -0.1291    0.0640 C   0  0  0  1  0  0  0  0  0  0  0  0
    2.8730   -0.5250    0.7445 H   0  0  0  1  0  0  0  0  0  0  0  0
    2.8322   -0.2125   -1.1877 O   0  0  0  1  0  0  0  0  0  0  0  0
    3.7239   -0.5382   -1.0447 H   0  0  0  1  0  0  0  0  0  0  0  0
    1.4953   -0.6281   -0.0058 C   0  0  0  1  0  0  0  0  0  0  0  0
    1.5935   -1.2453   -0.8743 H   0  0  0  1  0  0  0  0  0  0  0  0
    0.7329   -0.3161    0.0368 O   0  0  0  1  0  0  0  0  0  0  0  0
    1.5762   -1.6584    1.0836 C   0  0  0  1  0  0  0  0  0  0  0  0
    0.6757   -2.2363    1.0941 H   0  0  0  1  0  0  0  0  0  0  0  0
    1.6976   -1.1691    2.0274 H   0  0  0  1  0  0  0  0  0  0  0  0
    2.6845   -2.5154    0.8501 O   0  0  0  1  0  0  0  0  0  0  0  0
    2.3769   -3.4207    0.7639 H   0  0  0  1  0  0  0  0  0  0  0  0
   -1.4528    0.5979    1.3466 C   0  0  0  1  0  0  0  0  0  0  0  0
   -1.6371    0.8667    0.3274 H   0  0  0  1  0  0  0  0  0  0  0  0
   -1.6761    1.2057    1.8578 C   0  0  0  1  0  0  0  0  0  0  0  0
   -0.8486    1.8375    2.1046 H   0  0  0  1  0  0  0  0  0  0  0  0
   -2.5193    2.0823    1.1226 O   0  0  0  1  0  0  0  0  0  0  0  0
   -3.3842    1.6798    1.0152 H   0  0  0  1  0  0  0  0  0  0  0  0
   -2.1397    1.0394    2.5195 C   0  0  0  1  0  0  0  0  0  0  0  0
   -2.9490    1.7320    2.6209 H   0  0  0  1  0  0  0  0  0  0  0  0
   -1.3516    1.3182    3.6776 O   0  0  0  1  0  0  0  0  0  0  0  0
   -1.9178    1.6501    4.3782 H   0  0  0  1  0  0  0  0  0  0  0  0
   -2.3797    0.2646    2.6692 C   0  0  0  1  0  0  0  0  0  0  0  0
   -2.2273   -0.0051    3.6934 H   0  0  0  1  0  0  0  0  0  0  0  0
   -3.8040    0.2362    2.5557 O   0  0  0  1  0  0  0  0  0  0  0  0
   -4.1519   -0.4957    3.0704 H   0  0  0  1  0  0  0  0  0  0  0  0
   -2.1565   -0.3432    2.1579 C   0  0  0  1  0  0  0  0  0  0  0  0
   -3.0163   -0.9100    1.8677 H   0  0  0  1  0  0  0  0  0  0  0  0
   -1.6928   -0.1769    1.4963 O   0  0  0  1  0  0  0  0  0  0  0  0
   -1.3684   -1.3914    2.8943 C   0  0  0  1  0  0  0  0  0  0  0  0
   -0.9485   -2.0694    2.1810 H   0  0  0  1  0  0  0  0  0  0  0  0
   -2.0297   -1.9231    3.5462 H   0  0  0  1  0  0  0  0  0  0  0  0
   -0.3224   -0.8379    3.6634 O   0  0  0  1  0  0  0  0  0  0  0  0
    0.3270   -0.4379    3.0805 H   0  0  0  1  0  0  0  0  0  0  0  0
  1  2  1  0  0  0  0
  1  3  1  0  0  0  0
  1  4  1  0  0  0  0
  1 18  1  0  0  0  0
  3 24  1  0  0  0  0
  4  5  1  0  0  0  0
  4  6  1  0  0  0  0
  4  8  1  0  0  0  0
  6  7  1  0  0  0  0
  8  9  1  0  0  0  0
  8 10  1  0  0  0  0
  8 12  1  0  0  0  0
 10 11  1  0  0  0  0
 12 13  1  0  0  0  0
 12 14  1  0  0  0  0
 12 16  1  0  0  0  0
 14 15  1  0  0  0  0
 16 17  1  0  0  0  0
 16 18  1  0  0  0  0
 16 19  1  0  0  0  0
 19 20  1  0  0  0  0
 19 21  1  0  0  0  0
 19 22  1  0  0  0  0
 22 23  1  0  0  0  0
 24 25  1  0  0  0  0
 24 26  1  0  0  0  0
 24 40  1  0  0  0  0
 26 27  1  0  0  0  0
 26 28  1  0  0  0  0
 26 30  1  0  0  0  0
 28 29  1  0  0  0  0
 30 31  1  0  0  0  0
 30 32  1  0  0  0  0
 30 34  1  0  0  0  0
 32 33  1  0  0  0  0
 34 35  1  0  0  0  0
 34 36  1  0  0  0  0
 34 38  1  0  0  0  0
 36 37  1  0  0  0  0
 38 39  1  0  0  0  0
 38 40  1  0  0  0  0
 38 41  1  0  0  0  0
 41 42  1  0  0  0  0
 41 43  1  0  0  0  0
 41 44  1  0  0  0  0
 44 45  1  0  0  0  0
M  END
> <ConfClashScore>
0.0560358 

> <ConfOneFourInteractionScore>
-0.973101 

> <ConfScore>
6.53034 

> <ConfScorePBest>
0.0121115 

> <ConfTolerance>
0.811913 

$$$$
L16.****
  PyMOL2.4          3D                             0

 45 46  0  0  0  0  0  0  0  0999 V2000
    0.6886    0.6439   -0.1630 C   0  0  0  1  0  0  0  0  0  0  0  0
   -0.2754    0.8897    0.2311 H   0  0  0  1  0  0  0  0  0  0  0  0
    0.6789    1.2557   -1.4476 O   0  0  0  1  0  0  0  0  0  0  0  0
    1.3004    1.0509    0.2117 C   0  0  0  1  0  0  0  0  0  0  0  0
    1.5229    1.9618   -0.3037 H   0  0  0  1  0  0  0  0  0  0  0  0
    0.7448    1.5364    1.4386 O   0  0  0  1  0  0  0  0  0  0  0  0
    0.2301    0.8410    1.8546 H   0  0  0  1  0  0  0  0  0  0  0  0
    1.9933    0.6535    0.4172 C   0  0  0  1  0  0  0  0  0  0  0  0
    2.2981    0.8803    1.4175 H   0  0  0  1  0  0  0  0  0  0  0  0
    3.0548    1.2117   -0.3593 O   0  0  0  1  0  0  0  0  0  0  0  0
    3.4018    1.9891    0.0843 H   0  0  0  1  0  0  0  0  0  0  0  0
    2.0744   -0.1500    0.2482 C   0  0  0  1  0  0  0  0  0  0  0  0
    2.4239   -0.6879    1.1046 H   0  0  0  1  0  0  0  0  0  0  0  0
    3.2109   -0.2017   -0.6169 O   0  0  0  1  0  0  0  0  0  0  0  0
    3.5139   -1.1094   -0.6940 H   0  0  0  1  0  0  0  0  0  0  0  0
    1.4625   -0.5569   -0.1265 C   0  0  0  1  0  0  0  0  0  0  0  0
    1.8309   -1.1388   -0.9454 H   0  0  0  1  0  0  0  0  0  0  0  0
    0.7696   -0.1595   -0.3320 O   0  0  0  1  0  0  0  0  0  0  0  0
    0.9386   -1.6350    0.7925 C   0  0  0  1  0  0  0  0  0  0  0  0
    0.7149   -1.2194    1.7528 H   0  0  0  1  0  0  0  0  0  0  0  0
    1.6687   -2.4098    0.9000 H   0  0  0  1  0  0  0  0  0  0  0  0
   -0.2427   -2.1600    0.2042 O   0  0  0  1  0  0  0  0  0  0  0  0
   -0.5304   -2.9320    0.6971 H   0  0  0  1  0  0  0  0  0  0  0  0
   -0.4455    0.9317   -2.2189 C   0  0  0  1  0  0  0  0  0  0  0  0
   -1.2133    0.8501   -1.4781 H   0  0  0  1  0  0  0  0  0  0  0  0
   -0.5530    1.6033   -2.6859 C   0  0  0  1  0  0  0  0  0  0  0  0
    0.0485    2.4135   -2.3300 H   0  0  0  1  0  0  0  0  0  0  0  0
   -1.8750    2.0734   -2.4021 O   0  0  0  1  0  0  0  0  0  0  0  0
   -1.9114    2.4030   -1.5012 H   0  0  0  1  0  0  0  0  0  0  0  0
   -0.5102    1.5460   -3.5077 C   0  0  0  1  0  0  0  0  0  0  0  0
    0.1646    2.2831   -3.8901 H   0  0  0  1  0  0  0  0  0  0  0  0
   -1.7659    2.0496   -3.9658 O   0  0  0  1  0  0  0  0  0  0  0  0
   -1.6294    2.5840   -4.7515 H   0  0  0  1  0  0  0  0  0  0  0  0
   -0.3599    0.8164   -3.8618 C   0  0  0  1  0  0  0  0  0  0  0  0
   -1.0604    0.6242   -4.6474 H   0  0  0  1  0  0  0  0  0  0  0  0
    0.8573    0.9877   -4.5907 O   0  0  0  1  0  0  0  0  0  0  0  0
    0.9049    0.3349   -5.2930 H   0  0  0  1  0  0  0  0  0  0  0  0
   -0.2524    0.1448   -3.3948 C   0  0  0  1  0  0  0  0  0  0  0  0
    0.6490   -0.3567   -3.6791 H   0  0  0  1  0  0  0  0  0  0  0  0
   -0.2952    0.2021   -2.5731 O   0  0  0  1  0  0  0  0  0  0  0  0
   -1.2722   -0.9037   -3.7348 C   0  0  0  1  0  0  0  0  0  0  0  0
   -1.2632   -1.0795   -4.7902 H   0  0  0  1  0  0  0  0  0  0  0  0
   -2.2427   -0.5656   -3.4372 H   0  0  0  1  0  0  0  0  0  0  0  0
   -0.9628   -2.1115   -3.0519 O   0  0  0  1  0  0  0  0  0  0  0  0
   -0.4187   -2.6674   -3.6146 H   0  0  0  1  0  0  0  0  0  0  0  0
  1  2  1  0  0  0  0
  1  3  1  0  0  0  0
  1  4  1  0  0  0  0
  1 18  1  0  0  0  0
  3 24  1  0  0  0  0
  4  5  1  0  0  0  0
  4  6  1  0  0  0  0
  4  8  1  0  0  0  0
  6  7  1  0  0  0  0
  8  9  1  0  0  0  0
  8 10  1  0  0  0  0
  8 12  1  0  0  0  0
 10 11  1  0  0  0  0
 12 13  1  0  0  0  0
 12 14  1  0  0  0  0
 12 16  1  0  0  0  0
 14 15  1  0  0  0  0
 16 17  1  0  0  0  0
 16 18  1  0  0  0  0
 16 19  1  0  0  0  0
 19 20  1  0  0  0  0
 19 21  1  0  0  0  0
 19 22  1  0  0  0  0
 22 23  1  0  0  0  0
 24 25  1  0  0  0  0
 24 26  1  0  0  0  0
 24 40  1  0  0  0  0
 26 27  1  0  0  0  0
 26 28  1  0  0  0  0
 26 30  1  0  0  0  0
 28 29  1  0  0  0  0
 30 31  1  0  0  0  0
 30 32  1  0  0  0  0
 30 34  1  0  0  0  0
 32 33  1  0  0  0  0
 34 35  1  0  0  0  0
 34 36  1  0  0  0  0
 34 38  1  0  0  0  0
 36 37  1  0  0  0  0
 38 39  1  0  0  0  0
 38 40  1  0  0  0  0
 38 41  1  0  0  0  0
 41 42  1  0  0  0  0
 41 43  1  0  0  0  0
 41 44  1  0  0  0  0
 44 45  1  0  0  0  0
M  END
> <ConfClashScore>
0.0574887 

> <ConfOneFourInteractionScore>
-0.977217 

> <ConfScore>
6.53563 

> <ConfScorePBest>
0.0120085 

> <ConfTolerance>
0.689052 

$$$$
L16.****
  PyMOL2.4          3D                             0

 45 46  0  0  0  0  0  0  0  0999 V2000
    0.6897    0.3456    0.5446 C   0  0  0  1  0  0  0  0  0  0  0  0
    0.2779    0.3897    1.5312 H   0  0  0  1  0  0  0  0  0  0  0  0
   -0.3974    0.7752   -0.2683 O   0  0  0  1  0  0  0  0  0  0  0  0
    1.2769    0.9135    0.4304 C   0  0  0  1  0  0  0  0  0  0  0  0
    1.4401    1.4963    1.3128 H   0  0  0  1  0  0  0  0  0  0  0  0
    0.7211    1.8730   -0.4701 O   0  0  0  1  0  0  0  0  0  0  0  0
    0.3577    2.6081    0.0292 H   0  0  0  1  0  0  0  0  0  0  0  0
    1.9875    0.7033    0.0682 C   0  0  0  1  0  0  0  0  0  0  0  0
    2.2107    1.3831   -0.7273 H   0  0  0  1  0  0  0  0  0  0  0  0
    2.9842    1.0539    1.0294 O   0  0  0  1  0  0  0  0  0  0  0  0
    3.5831    1.7003    0.6487 H   0  0  0  1  0  0  0  0  0  0  0  0
    2.1108   -0.0740   -0.1795 C   0  0  0  1  0  0  0  0  0  0  0  0
    2.5110   -0.1136   -1.1710 H   0  0  0  1  0  0  0  0  0  0  0  0
    3.1847   -0.5996    0.6035 O   0  0  0  1  0  0  0  0  0  0  0  0
    3.5552   -1.3685    0.1640 H   0  0  0  1  0  0  0  0  0  0  0  0
    1.5236   -0.6419   -0.0653 C   0  0  0  1  0  0  0  0  0  0  0  0
    1.9374   -1.5039    0.4149 H   0  0  0  1  0  0  0  0  0  0  0  0
    0.8129   -0.4316    0.2969 O   0  0  0  1  0  0  0  0  0  0  0  0
    1.0963   -1.2341   -1.3800 C   0  0  0  1  0  0  0  0  0  0  0  0
    1.9687   -1.5416   -1.9178 H   0  0  0  1  0  0  0  0  0  0  0  0
    0.5763   -0.4858   -1.9409 H   0  0  0  1  0  0  0  0  0  0  0  0
    0.2420   -2.3571   -1.2170 O   0  0  0  1  0  0  0  0  0  0  0  0
   -0.6707   -2.0622   -1.1769 H   0  0  0  1  0  0  0  0  0  0  0  0
   -1.6162    0.2245    0.1610 C   0  0  0  1  0  0  0  0  0  0  0  0
   -1.5132   -0.8017   -0.1240 H   0  0  0  1  0  0  0  0  0  0  0  0
   -2.1707    0.6096   -0.3132 C   0  0  0  1  0  0  0  0  0  0  0  0
   -2.6354   -0.1130   -0.9510 H   0  0  0  1  0  0  0  0  0  0  0  0
   -1.4693    1.3928   -1.2695 O   0  0  0  1  0  0  0  0  0  0  0  0
   -2.0067    1.4920   -2.0588 H   0  0  0  1  0  0  0  0  0  0  0  0
   -2.7591    1.0729    0.0325 C   0  0  0  1  0  0  0  0  0  0  0  0
   -3.7224    0.8678   -0.3857 H   0  0  0  1  0  0  0  0  0  0  0  0
   -2.5329    2.4248   -0.3691 O   0  0  0  1  0  0  0  0  0  0  0  0
   -2.9821    2.5914   -1.2010 H   0  0  0  1  0  0  0  0  0  0  0  0
   -2.7923    1.1507    0.8530 C   0  0  0  1  0  0  0  0  0  0  0  0
   -3.7863    0.9911    1.2154 H   0  0  0  1  0  0  0  0  0  0  0  0
   -2.5860    2.5332    1.1504 O   0  0  0  1  0  0  0  0  0  0  0  0
   -3.4303    2.9502    1.3373 H   0  0  0  1  0  0  0  0  0  0  0  0
   -2.2378    0.7657    1.3272 C   0  0  0  1  0  0  0  0  0  0  0  0
   -1.8251    1.4318    2.0558 H   0  0  0  1  0  0  0  0  0  0  0  0
   -1.6494    0.3023    0.9815 O   0  0  0  1  0  0  0  0  0  0  0  0
   -2.9425   -0.2397    2.2095 C   0  0  0  1  0  0  0  0  0  0  0  0
   -3.4693   -0.9327    1.5873 H   0  0  0  1  0  0  0  0  0  0  0  0
   -3.6386    0.2801    2.8342 H   0  0  0  1  0  0  0  0  0  0  0  0
   -2.0466   -0.9583    3.0299 O   0  0  0  1  0  0  0  0  0  0  0  0
   -2.4139   -1.8237    3.2243 H   0  0  0  1  0  0  0  0  0  0  0  0
  1  2  1  0  0  0  0
  1  3  1  0  0  0  0
  1  4  1  0  0  0  0
  1 18  1  0  0  0  0
  3 24  1  0  0  0  0
  4  5  1  0  0  0  0
  4  6  1  0  0  0  0
  4  8  1  0  0  0  0
  6  7  1  0  0  0  0
  8  9  1  0  0  0  0
  8 10  1  0  0  0  0
  8 12  1  0  0  0  0
 10 11  1  0  0  0  0
 12 13  1  0  0  0  0
 12 14  1  0  0  0  0
 12 16  1  0  0  0  0
 14 15  1  0  0  0  0
 16 17  1  0  0  0  0
 16 18  1  0  0  0  0
 16 19  1  0  0  0  0
 19 20  1  0  0  0  0
 19 21  1  0  0  0  0
 19 22  1  0  0  0  0
 22 23  1  0  0  0  0
 24 25  1  0  0  0  0
 24 26  1  0  0  0  0
 24 40  1  0  0  0  0
 26 27  1  0  0  0  0
 26 28  1  0  0  0  0
 26 30  1  0  0  0  0
 28 29  1  0  0  0  0
 30 31  1  0  0  0  0
 30 32  1  0  0  0  0
 30 34  1  0  0  0  0
 32 33  1  0  0  0  0
 34 35  1  0  0  0  0
 34 36  1  0  0  0  0
 34 38  1  0  0  0  0
 36 37  1  0  0  0  0
 38 39  1  0  0  0  0
 38 40  1  0  0  0  0
 38 41  1  0  0  0  0
 41 42  1  0  0  0  0
 41 43  1  0  0  0  0
 41 44  1  0  0  0  0
 44 45  1  0  0  0  0
M  END
> <ConfClashScore>
0.0584965 

> <ConfOneFourInteractionScore>
-0.970689 

> <ConfScore>
6.54666 

> <ConfScorePBest>
0.0119055 

> <ConfTolerance>
0.778649 

$$$$
L16.****
  PyMOL2.4          3D                             0

 45 46  0  0  0  0  0  0  0  0999 V2000
    0.7101    0.4432    0.1681 C   0  0  0  1  0  0  0  0  0  0  0  0
    0.0535    0.6115    0.9959 H   0  0  0  1  0  0  0  0  0  0  0  0
    0.0097    1.0535   -0.9096 O   0  0  0  1  0  0  0  0  0  0  0  0
    1.3853    0.9149    0.2132 C   0  0  0  1  0  0  0  0  0  0  0  0
    1.2621    1.7872   -0.3941 H   0  0  0  1  0  0  0  0  0  0  0  0
    1.4791    1.4910    1.5169 O   0  0  0  1  0  0  0  0  0  0  0  0
    0.7023    2.0290    1.6862 H   0  0  0  1  0  0  0  0  0  0  0  0
    2.1286    0.5828    0.0810 C   0  0  0  1  0  0  0  0  0  0  0  0
    2.8055    0.8532    0.8643 H   0  0  0  1  0  0  0  0  0  0  0  0
    2.7339    1.2073   -1.0529 O   0  0  0  1  0  0  0  0  0  0  0  0
    2.8418    2.1458   -0.8823 H   0  0  0  1  0  0  0  0  0  0  0  0
    2.1968   -0.2200   -0.0962 C   0  0  0  1  0  0  0  0  0  0  0  0
    2.8511   -0.3868   -0.9262 H   0  0  0  1  0  0  0  0  0  0  0  0
    2.9578   -0.7337    0.9991 O   0  0  0  1  0  0  0  0  0  0  0  0
    2.4607   -0.6256    1.8133 H   0  0  0  1  0  0  0  0  0  0  0  0
    1.5217   -0.6918   -0.1414 C   0  0  0  1  0  0  0  0  0  0  0  0
    1.6450   -1.5949    0.4191 H   0  0  0  1  0  0  0  0  0  0  0  0
    0.7783   -0.3597   -0.0091 O   0  0  0  1  0  0  0  0  0  0  0  0
    1.3397   -1.2319   -1.5331 C   0  0  0  1  0  0  0  0  0  0  0  0
    2.2248   -1.7637   -1.8135 H   0  0  0  1  0  0  0  0  0  0  0  0
    1.1888   -0.4112   -2.2029 H   0  0  0  1  0  0  0  0  0  0  0  0
    0.2280   -2.1122   -1.6327 O   0  0  0  1  0  0  0  0  0  0  0  0
    0.3380   -2.6821   -2.3973 H   0  0  0  1  0  0  0  0  0  0  0  0
   -1.2016    0.4392   -1.2104 C   0  0  0  1  0  0  0  0  0  0  0  0
   -1.2224   -0.3761   -0.5178 H   0  0  0  1  0  0  0  0  0  0  0  0
   -1.8037    0.9800   -1.0507 C   0  0  0  1  0  0  0  0  0  0  0  0
   -1.4403    1.7928   -0.4573 H   0  0  0  1  0  0  0  0  0  0  0  0
   -2.6391    0.2924   -0.1290 O   0  0  0  1  0  0  0  0  0  0  0  0
   -2.8994    0.8905    0.5754 H   0  0  0  1  0  0  0  0  0  0  0  0
   -2.2860    1.2535   -1.6615 C   0  0  0  1  0  0  0  0  0  0  0  0
   -2.3360    2.3222   -1.6443 H   0  0  0  1  0  0  0  0  0  0  0  0
   -3.6193    0.8989   -1.2919 O   0  0  0  1  0  0  0  0  0  0  0  0
   -4.2014    1.6490   -1.4341 H   0  0  0  1  0  0  0  0  0  0  0  0
   -2.1653    0.9854   -2.4322 C   0  0  0  1  0  0  0  0  0  0  0  0
   -2.1687    1.7916   -3.1358 H   0  0  0  1  0  0  0  0  0  0  0  0
   -3.4040    0.3308   -2.7133 O   0  0  0  1  0  0  0  0  0  0  0  0
   -3.6578    0.5021   -3.6232 H   0  0  0  1  0  0  0  0  0  0  0  0
   -1.5631    0.4446   -2.5919 C   0  0  0  1  0  0  0  0  0  0  0  0
   -1.9451   -0.3783   -3.1592 H   0  0  0  1  0  0  0  0  0  0  0  0
   -1.0809    0.1711   -1.9811 O   0  0  0  1  0  0  0  0  0  0  0  0
   -0.5493    1.0043   -3.5515 C   0  0  0  1  0  0  0  0  0  0  0  0
   -0.8981    0.8458   -4.5505 H   0  0  0  1  0  0  0  0  0  0  0  0
    0.3777    0.4888   -3.4108 H   0  0  0  1  0  0  0  0  0  0  0  0
   -0.3310    2.3958   -3.3600 O   0  0  0  1  0  0  0  0  0  0  0  0
   -0.4070    2.6066   -2.4265 H   0  0  0  1  0  0  0  0  0  0  0  0
  1  2  1  0  0  0  0
  1  3  1  0  0  0  0
  1  4  1  0  0  0  0
  1 18  1  0  0  0  0
  3 24  1  0  0  0  0
  4  5  1  0  0  0  0
  4  6  1  0  0  0  0
  4  8  1  0  0  0  0
  6  7  1  0  0  0  0
  8  9  1  0  0  0  0
  8 10  1  0  0  0  0
  8 12  1  0  0  0  0
 10 11  1  0  0  0  0
 12 13  1  0  0  0  0
 12 14  1  0  0  0  0
 12 16  1  0  0  0  0
 14 15  1  0  0  0  0
 16 17  1  0  0  0  0
 16 18  1  0  0  0  0
 16 19  1  0  0  0  0
 19 20  1  0  0  0  0
 19 21  1  0  0  0  0
 19 22  1  0  0  0  0
 22 23  1  0  0  0  0
 24 25  1  0  0  0  0
 24 26  1  0  0  0  0
 24 40  1  0  0  0  0
 26 27  1  0  0  0  0
 26 28  1  0  0  0  0
 26 30  1  0  0  0  0
 28 29  1  0  0  0  0
 30 31  1  0  0  0  0
 30 32  1  0  0  0  0
 30 34  1  0  0  0  0
 32 33  1  0  0  0  0
 34 35  1  0  0  0  0
 34 36  1  0  0  0  0
 34 38  1  0  0  0  0
 36 37  1  0  0  0  0
 38 39  1  0  0  0  0
 38 40  1  0  0  0  0
 38 41  1  0  0  0  0
 41 42  1  0  0  0  0
 41 43  1  0  0  0  0
 41 44  1  0  0  0  0
 44 45  1  0  0  0  0
M  END
> <ConfClashScore>
0.0569813 

> <ConfOneFourInteractionScore>
-0.970385 

> <ConfScore>
6.58284 

> <ConfScorePBest>
0.0118025 

> <ConfTolerance>
0.827675 

$$$$
L16.****
  PyMOL2.4          3D                             0

 45 46  0  0  0  0  0  0  0  0999 V2000
    0.7691    0.6150   -0.2330 C   0  0  0  1  0  0  0  0  0  0  0  0
   -0.1804    0.9224    0.1529 H   0  0  0  1  0  0  0  0  0  0  0  0
    0.7161    1.0887   -1.5746 O   0  0  0  1  0  0  0  0  0  0  0  0
    1.3823    1.0118    0.1503 C   0  0  0  1  0  0  0  0  0  0  0  0
    1.7241    1.8312   -0.4469 H   0  0  0  1  0  0  0  0  0  0  0  0
    0.8133    1.6929    1.2714 O   0  0  0  1  0  0  0  0  0  0  0  0
    0.4246    1.0527    1.8719 H   0  0  0  1  0  0  0  0  0  0  0  0
    2.0240    0.5875    0.4478 C   0  0  0  1  0  0  0  0  0  0  0  0
    2.1407    0.8268    1.4842 H   0  0  0  1  0  0  0  0  0  0  0  0
    3.2083    1.1461   -0.0862 O   0  0  0  1  0  0  0  0  0  0  0  0
    3.2863    2.0607    0.1950 H   0  0  0  1  0  0  0  0  0  0  0  0
    2.0526   -0.2325    0.3621 C   0  0  0  1  0  0  0  0  0  0  0  0
    2.2937   -0.7062    1.2907 H   0  0  0  1  0  0  0  0  0  0  0  0
    3.2418   -0.4528   -0.3991 O   0  0  0  1  0  0  0  0  0  0  0  0
    3.0355   -0.4094   -1.3356 H   0  0  0  1  0  0  0  0  0  0  0  0
    1.4394   -0.6293   -0.0212 C   0  0  0  1  0  0  0  0  0  0  0  0
    1.8565   -1.2148   -0.8137 H   0  0  0  1  0  0  0  0  0  0  0  0
    0.7976   -0.2051   -0.3187 O   0  0  0  1  0  0  0  0  0  0  0  0
    0.8375   -1.7108    0.8146 C   0  0  0  1  0  0  0  0  0  0  0  0
   -0.1722   -1.8803    0.5037 H   0  0  0  1  0  0  0  0  0  0  0  0
    0.8497   -1.4142    1.8426 H   0  0  0  1  0  0  0  0  0  0  0  0
    1.5864   -2.9077    0.6597 O   0  0  0  1  0  0  0  0  0  0  0  0
    2.4804   -2.7703    0.9813 H   0  0  0  1  0  0  0  0  0  0  0  0
   -0.4936    0.7576   -2.1923 C   0  0  0  1  0  0  0  0  0  0  0  0
   -0.5089   -0.3101   -2.1230 H   0  0  0  1  0  0  0  0  0  0  0  0
   -0.4106    1.0143   -2.9719 C   0  0  0  1  0  0  0  0  0  0  0  0
    0.6171    1.2174   -3.1897 H   0  0  0  1  0  0  0  0  0  0  0  0
   -0.6827   -0.0670   -3.8534 O   0  0  0  1  0  0  0  0  0  0  0  0
    0.0997   -0.6170   -3.9369 H   0  0  0  1  0  0  0  0  0  0  0  0
   -0.8904    1.6199   -3.2606 C   0  0  0  1  0  0  0  0  0  0  0  0
   -1.3600    1.2997   -4.1672 H   0  0  0  1  0  0  0  0  0  0  0  0
   -0.0221    2.6436   -3.7486 O   0  0  0  1  0  0  0  0  0  0  0  0
   -0.2172    2.8157   -4.6727 H   0  0  0  1  0  0  0  0  0  0  0  0
   -1.4534    1.9685   -2.7687 C   0  0  0  1  0  0  0  0  0  0  0  0
   -2.4065    1.9906   -3.2545 H   0  0  0  1  0  0  0  0  0  0  0  0
   -1.1229    3.3581   -2.7252 O   0  0  0  1  0  0  0  0  0  0  0  0
   -1.9275    3.8802   -2.7645 H   0  0  0  1  0  0  0  0  0  0  0  0
   -1.5364    1.7117   -1.9891 C   0  0  0  1  0  0  0  0  0  0  0  0
   -1.5616    2.5395   -1.3115 H   0  0  0  1  0  0  0  0  0  0  0  0
   -1.0565    1.1061   -1.7004 O   0  0  0  1  0  0  0  0  0  0  0  0
   -2.9177    1.1281   -1.7964 C   0  0  0  1  0  0  0  0  0  0  0  0
   -3.6425    1.8935   -1.9801 H   0  0  0  1  0  0  0  0  0  0  0  0
   -3.0079    0.7857   -0.7867 H   0  0  0  1  0  0  0  0  0  0  0  0
   -3.1735    0.0381   -2.6722 O   0  0  0  1  0  0  0  0  0  0  0  0
   -3.6291    0.3561   -3.4551 H   0  0  0  1  0  0  0  0  0  0  0  0
  1  2  1  0  0  0  0
  1  3  1  0  0  0  0
  1  4  1  0  0  0  0
  1 18  1  0  0  0  0
  3 24  1  0  0  0  0
  4  5  1  0  0  0  0
  4  6  1  0  0  0  0
  4  8  1  0  0  0  0
  6  7  1  0  0  0  0
  8  9  1  0  0  0  0
  8 10  1  0  0  0  0
  8 12  1  0  0  0  0
 10 11  1  0  0  0  0
 12 13  1  0  0  0  0
 12 14  1  0  0  0  0
 12 16  1  0  0  0  0
 14 15  1  0  0  0  0
 16 17  1  0  0  0  0
 16 18  1  0  0  0  0
 16 19  1  0  0  0  0
 19 20  1  0  0  0  0
 19 21  1  0  0  0  0
 19 22  1  0  0  0  0
 22 23  1  0  0  0  0
 24 25  1  0  0  0  0
 24 26  1  0  0  0  0
 24 40  1  0  0  0  0
 26 27  1  0  0  0  0
 26 28  1  0  0  0  0
 26 30  1  0  0  0  0
 28 29  1  0  0  0  0
 30 31  1  0  0  0  0
 30 32  1  0  0  0  0
 30 34  1  0  0  0  0
 32 33  1  0  0  0  0
 34 35  1  0  0  0  0
 34 36  1  0  0  0  0
 34 38  1  0  0  0  0
 36 37  1  0  0  0  0
 38 39  1  0  0  0  0
 38 40  1  0  0  0  0
 38 41  1  0  0  0  0
 41 42  1  0  0  0  0
 41 43  1  0  0  0  0
 41 44  1  0  0  0  0
 44 45  1  0  0  0  0
M  END
> <ConfClashScore>
0.0582961 

> <ConfOneFourInteractionScore>
-0.96156 

> <ConfScore>
6.58996 

> <ConfScorePBest>
0.0116995 

> <ConfTolerance>
0.698675 

$$$$
L16.****
  PyMOL2.4          3D                             0

 45 46  0  0  0  0  0  0  0  0999 V2000
    0.6172    0.3832    0.4055 C   0  0  0  1  0  0  0  0  0  0  0  0
   -0.2723    0.7536   -0.0599 H   0  0  0  1  0  0  0  0  0  0  0  0
    0.3116    0.5334    1.7870 O   0  0  0  1  0  0  0  0  0  0  0  0
    1.2462    0.9026    0.2836 C   0  0  0  1  0  0  0  0  0  0  0  0
    1.3873    1.5353    1.1349 H   0  0  0  1  0  0  0  0  0  0  0  0
    0.8022    1.8345   -0.7038 O   0  0  0  1  0  0  0  0  0  0  0  0
    0.7278    2.7070   -0.3104 H   0  0  0  1  0  0  0  0  0  0  0  0
    1.9690    0.6158    0.0086 C   0  0  0  1  0  0  0  0  0  0  0  0
    2.3287    1.2050   -0.8090 H   0  0  0  1  0  0  0  0  0  0  0  0
    2.9440    0.8850    1.0177 O   0  0  0  1  0  0  0  0  0  0  0  0
    3.2346    1.7972    0.9473 H   0  0  0  1  0  0  0  0  0  0  0  0
    2.0627   -0.1895   -0.1444 C   0  0  0  1  0  0  0  0  0  0  0  0
    2.4794   -0.3351   -1.1191 H   0  0  0  1  0  0  0  0  0  0  0  0
    3.1217   -0.6602    0.6920 O   0  0  0  1  0  0  0  0  0  0  0  0
    3.9475   -0.6446    0.2027 H   0  0  0  1  0  0  0  0  0  0  0  0
    1.4336   -0.7089   -0.0225 C   0  0  0  1  0  0  0  0  0  0  0  0
    1.7486   -1.5519    0.5564 H   0  0  0  1  0  0  0  0  0  0  0  0
    0.7108   -0.4221    0.2525 O   0  0  0  1  0  0  0  0  0  0  0  0
    1.0622   -1.3652   -1.3071 C   0  0  0  1  0  0  0  0  0  0  0  0
    1.9576   -1.7260   -1.7686 H   0  0  0  1  0  0  0  0  0  0  0  0
    0.6064   -0.6307   -1.9376 H   0  0  0  1  0  0  0  0  0  0  0  0
    0.1617   -2.4556   -1.1747 O   0  0  0  1  0  0  0  0  0  0  0  0
    0.4434   -3.0176   -0.4491 H   0  0  0  1  0  0  0  0  0  0  0  0
   -0.9313    0.0402    2.2065 C   0  0  0  1  0  0  0  0  0  0  0  0
   -0.9375   -0.9448    1.7886 H   0  0  0  1  0  0  0  0  0  0  0  0
   -0.8559    0.0144    3.0276 C   0  0  0  1  0  0  0  0  0  0  0  0
   -0.7644   -0.9899    3.3851 H   0  0  0  1  0  0  0  0  0  0  0  0
    0.4602    0.5217    3.2029 O   0  0  0  1  0  0  0  0  0  0  0  0
    0.9686   -0.0868    3.7441 H   0  0  0  1  0  0  0  0  0  0  0  0
   -1.3596    0.4626    3.5029 C   0  0  0  1  0  0  0  0  0  0  0  0
   -0.8081    1.0076    4.2402 H   0  0  0  1  0  0  0  0  0  0  0  0
   -1.9960   -0.5431    4.2926 O   0  0  0  1  0  0  0  0  0  0  0  0
   -2.1239   -0.2158    5.1859 H   0  0  0  1  0  0  0  0  0  0  0  0
   -1.9387    0.9366    3.1559 C   0  0  0  1  0  0  0  0  0  0  0  0
   -1.8741    1.9312    3.5452 H   0  0  0  1  0  0  0  0  0  0  0  0
   -3.2050    0.5176    3.6689 O   0  0  0  1  0  0  0  0  0  0  0  0
   -3.6039    1.2367    4.1642 H   0  0  0  1  0  0  0  0  0  0  0  0
   -2.0141    0.9623    2.3348 C   0  0  0  1  0  0  0  0  0  0  0  0
   -3.0325    0.7939    2.0532 H   0  0  0  1  0  0  0  0  0  0  0  0
   -1.5104    0.5142    1.8596 O   0  0  0  1  0  0  0  0  0  0  0  0
   -1.8102    2.3646    1.8370 C   0  0  0  1  0  0  0  0  0  0  0  0
   -0.7889    2.6486    1.9823 H   0  0  0  1  0  0  0  0  0  0  0  0
   -2.4470    3.0310    2.3804 H   0  0  0  1  0  0  0  0  0  0  0  0
   -2.1270    2.4320    0.4529 O   0  0  0  1  0  0  0  0  0  0  0  0
   -1.3831    2.8016   -0.0284 H   0  0  0  1  0  0  0  0  0  0  0  0
  1  2  1  0  0  0  0
  1  3  1  0  0  0  0
  1  4  1  0  0  0  0
  1 18  1  0  0  0  0
  3 24  1  0  0  0  0
  4  5  1  0  0  0  0
  4  6  1  0  0  0  0
  4  8  1  0  0  0  0
  6  7  1  0  0  0  0
  8  9  1  0  0  0  0
  8 10  1  0  0  0  0
  8 12  1  0  0  0  0
 10 11  1  0  0  0  0
 12 13  1  0  0  0  0
 12 14  1  0  0  0  0
 12 16  1  0  0  0  0
 14 15  1  0  0  0  0
 16 17  1  0  0  0  0
 16 18  1  0  0  0  0
 16 19  1  0  0  0  0
 19 20  1  0  0  0  0
 19 21  1  0  0  0  0
 19 22  1  0  0  0  0
 22 23  1  0  0  0  0
 24 25  1  0  0  0  0
 24 26  1  0  0  0  0
 24 40  1  0  0  0  0
 26 27  1  0  0  0  0
 26 28  1  0  0  0  0
 26 30  1  0  0  0  0
 28 29  1  0  0  0  0
 30 31  1  0  0  0  0
 30 32  1  0  0  0  0
 30 34  1  0  0  0  0
 32 33  1  0  0  0  0
 34 35  1  0  0  0  0
 34 36  1  0  0  0  0
 34 38  1  0  0  0  0
 36 37  1  0  0  0  0
 38 39  1  0  0  0  0
 38 40  1  0  0  0  0
 38 41  1  0  0  0  0
 41 42  1  0  0  0  0
 41 43  1  0  0  0  0
 41 44  1  0  0  0  0
 44 45  1  0  0  0  0
M  END
> <ConfClashScore>
0.0598138 

> <ConfOneFourInteractionScore>
-0.967225 

> <ConfScore>
6.60187 

> <ConfScorePBest>
0.0115965 

> <ConfTolerance>
0.629634 

$$$$
L16.****
  PyMOL2.4          3D                             0

 45 46  0  0  0  0  0  0  0  0999 V2000
    0.6528    0.4627    0.3590 C   0  0  0  1  0  0  0  0  0  0  0  0
   -0.2276    0.9197   -0.0422 H   0  0  0  1  0  0  0  0  0  0  0  0
    0.3944    0.4382    1.7580 O   0  0  0  1  0  0  0  0  0  0  0  0
    1.3171    0.9474    0.2938 C   0  0  0  1  0  0  0  0  0  0  0  0
    1.4442    1.5581    1.1632 H   0  0  0  1  0  0  0  0  0  0  0  0
    0.9463    1.9072   -0.6987 O   0  0  0  1  0  0  0  0  0  0  0  0
    0.1679    2.3866   -0.4059 H   0  0  0  1  0  0  0  0  0  0  0  0
    2.0346    0.6298    0.0395 C   0  0  0  1  0  0  0  0  0  0  0  0
    2.4750    1.2359   -0.7244 H   0  0  0  1  0  0  0  0  0  0  0  0
    2.9124    0.8579    1.1428 O   0  0  0  1  0  0  0  0  0  0  0  0
    3.3020    1.7320    1.0670 H   0  0  0  1  0  0  0  0  0  0  0  0
    2.0878   -0.1715   -0.1495 C   0  0  0  1  0  0  0  0  0  0  0  0
    2.5441   -0.2959   -1.1093 H   0  0  0  1  0  0  0  0  0  0  0  0
    3.0730   -0.7464    0.7115 O   0  0  0  1  0  0  0  0  0  0  0  0
    3.9132   -0.7947    0.2497 H   0  0  0  1  0  0  0  0  0  0  0  0
    1.4235   -0.6562   -0.0844 C   0  0  0  1  0  0  0  0  0  0  0  0
    1.6598   -1.5356    0.4776 H   0  0  0  1  0  0  0  0  0  0  0  0
    0.7060   -0.3386    0.1700 O   0  0  0  1  0  0  0  0  0  0  0  0
    1.0366   -1.2615   -1.4057 C   0  0  0  1  0  0  0  0  0  0  0  0
    0.3102   -2.0279   -1.2327 H   0  0  0  1  0  0  0  0  0  0  0  0
    1.9079   -1.6900   -1.8553 H   0  0  0  1  0  0  0  0  0  0  0  0
    0.4859   -0.3051   -2.2999 O   0  0  0  1  0  0  0  0  0  0  0  0
    1.0346    0.4826   -2.3044 H   0  0  0  1  0  0  0  0  0  0  0  0
   -0.8045   -0.1435    2.1539 C   0  0  0  1  0  0  0  0  0  0  0  0
   -0.8412   -1.0355    1.5642 H   0  0  0  1  0  0  0  0  0  0  0  0
   -0.6988   -0.3085    2.9553 C   0  0  0  1  0  0  0  0  0  0  0  0
    0.3367   -0.3068    3.2249 H   0  0  0  1  0  0  0  0  0  0  0  0
   -1.0533   -1.6751    3.1190 O   0  0  0  1  0  0  0  0  0  0  0  0
   -0.4447   -2.2259    2.6213 H   0  0  0  1  0  0  0  0  0  0  0  0
   -1.1607    0.0756    3.5206 C   0  0  0  1  0  0  0  0  0  0  0  0
   -1.6046   -0.6444    4.1758 H   0  0  0  1  0  0  0  0  0  0  0  0
   -0.2655    0.7343    4.3949 O   0  0  0  1  0  0  0  0  0  0  0  0
   -0.5995    0.6834    5.2935 H   0  0  0  1  0  0  0  0  0  0  0  0
   -1.7285    0.6249    3.2834 C   0  0  0  1  0  0  0  0  0  0  0  0
   -2.6627    0.4669    3.7806 H   0  0  0  1  0  0  0  0  0  0  0  0
   -1.3229    1.8963    3.7945 O   0  0  0  1  0  0  0  0  0  0  0  0
   -2.0893    2.4690    3.8741 H   0  0  0  1  0  0  0  0  0  0  0  0
   -1.8342    0.7900    2.4820 C   0  0  0  1  0  0  0  0  0  0  0  0
   -1.8572    1.8453    2.3069 H   0  0  0  1  0  0  0  0  0  0  0  0
   -1.3723    0.4059    1.9168 O   0  0  0  1  0  0  0  0  0  0  0  0
   -3.2404    0.4025    2.1250 C   0  0  0  1  0  0  0  0  0  0  0  0
   -3.4326    0.6617    1.1049 H   0  0  0  1  0  0  0  0  0  0  0  0
   -3.9252    0.9234    2.7611 H   0  0  0  1  0  0  0  0  0  0  0  0
   -3.4090   -0.9986    2.2963 O   0  0  0  1  0  0  0  0  0  0  0  0
   -3.0124   -1.2698    3.1274 H   0  0  0  1  0  0  0  0  0  0  0  0
  1  2  1  0  0  0  0
  1  3  1  0  0  0  0
  1  4  1  0  0  0  0
  1 18  1  0  0  0  0
  3 24  1  0  0  0  0
  4  5  1  0  0  0  0
  4  6  1  0  0  0  0
  4  8  1  0  0  0  0
  6  7  1  0  0  0  0
  8  9  1  0  0  0  0
  8 10  1  0  0  0  0
  8 12  1  0  0  0  0
 10 11  1  0  0  0  0
 12 13  1  0  0  0  0
 12 14  1  0  0  0  0
 12 16  1  0  0  0  0
 14 15  1  0  0  0  0
 16 17  1  0  0  0  0
 16 18  1  0  0  0  0
 16 19  1  0  0  0  0
 19 20  1  0  0  0  0
 19 21  1  0  0  0  0
 19 22  1  0  0  0  0
 22 23  1  0  0  0  0
 24 25  1  0  0  0  0
 24 26  1  0  0  0  0
 24 40  1  0  0  0  0
 26 27  1  0  0  0  0
 26 28  1  0  0  0  0
 26 30  1  0  0  0  0
 28 29  1  0  0  0  0
 30 31  1  0  0  0  0
 30 32  1  0  0  0  0
 30 34  1  0  0  0  0
 32 33  1  0  0  0  0
 34 35  1  0  0  0  0
 34 36  1  0  0  0  0
 34 38  1  0  0  0  0
 36 37  1  0  0  0  0
 38 39  1  0  0  0  0
 38 40  1  0  0  0  0
 38 41  1  0  0  0  0
 41 42  1  0  0  0  0
 41 43  1  0  0  0  0
 41 44  1  0  0  0  0
 44 45  1  0  0  0  0
M  END
> <ConfClashScore>
0.0599628 

> <ConfOneFourInteractionScore>
-0.964509 

> <ConfScore>
6.61518 

> <ConfScorePBest>
0.0114935 

> <ConfTolerance>
0.822246 

$$$$
L16.****
  PyMOL2.4          3D                             0

 45 46  0  0  0  0  0  0  0  0999 V2000
    0.5702    0.3903    0.1982 C   0  0  0  1  0  0  0  0  0  0  0  0
   -0.1322    0.9557   -0.3779 H   0  0  0  1  0  0  0  0  0  0  0  0
   -0.1311    0.1939    1.4217 O   0  0  0  1  0  0  0  0  0  0  0  0
    1.2134    0.8552    0.4228 C   0  0  0  1  0  0  0  0  0  0  0  0
    1.0832    1.2153    1.4219 H   0  0  0  1  0  0  0  0  0  0  0  0
    1.0381    2.0506   -0.3392 O   0  0  0  1  0  0  0  0  0  0  0  0
    0.8556    2.7840    0.2527 H   0  0  0  1  0  0  0  0  0  0  0  0
    1.9814    0.5738    0.3160 C   0  0  0  1  0  0  0  0  0  0  0  0
    2.5661    0.7041    1.2026 H   0  0  0  1  0  0  0  0  0  0  0  0
    2.6256    1.4575   -0.5971 O   0  0  0  1  0  0  0  0  0  0  0  0
    3.5776    1.3754   -0.5050 H   0  0  0  1  0  0  0  0  0  0  0  0
    2.1060   -0.1715   -0.0150 C   0  0  0  1  0  0  0  0  0  0  0  0
    2.8583   -0.1449   -0.7754 H   0  0  0  1  0  0  0  0  0  0  0  0
    2.7584   -0.8905    1.0335 O   0  0  0  1  0  0  0  0  0  0  0  0
    3.6666   -0.5895    1.1116 H   0  0  0  1  0  0  0  0  0  0  0  0
    1.4627   -0.6364   -0.2396 C   0  0  0  1  0  0  0  0  0  0  0  0
    1.5625   -1.6373    0.1254 H   0  0  0  1  0  0  0  0  0  0  0  0
    0.6947   -0.3551   -0.1328 O   0  0  0  1  0  0  0  0  0  0  0  0
    1.5057   -0.8556   -1.7124 C   0  0  0  1  0  0  0  0  0  0  0  0
    2.4405   -1.3169   -1.9540 H   0  0  0  1  0  0  0  0  0  0  0  0
    1.4431    0.0980   -2.1936 H   0  0  0  1  0  0  0  0  0  0  0  0
    0.4628   -1.6765   -2.2182 O   0  0  0  1  0  0  0  0  0  0  0  0
    0.7054   -2.6001   -2.1194 H   0  0  0  1  0  0  0  0  0  0  0  0
   -1.2436   -0.6711    1.2556 C   0  0  0  1  0  0  0  0  0  0  0  0
   -0.8043   -1.5185    0.7720 H   0  0  0  1  0  0  0  0  0  0  0  0
   -1.4488   -0.8403    2.0366 C   0  0  0  1  0  0  0  0  0  0  0  0
   -1.2094   -1.8508    2.2943 H   0  0  0  1  0  0  0  0  0  0  0  0
   -0.5397   -0.1003    2.8404 O   0  0  0  1  0  0  0  0  0  0  0  0
    0.1252   -0.6921    3.1999 H   0  0  0  1  0  0  0  0  0  0  0  0
   -2.1903   -0.6228    2.3251 C   0  0  0  1  0  0  0  0  0  0  0  0
   -2.1035   -0.1202    3.2657 H   0  0  0  1  0  0  0  0  0  0  0  0
   -2.7840   -1.8645    2.7070 O   0  0  0  1  0  0  0  0  0  0  0  0
   -2.3307   -2.2126    3.4783 H   0  0  0  1  0  0  0  0  0  0  0  0
   -2.7263   -0.2360    1.8317 C   0  0  0  1  0  0  0  0  0  0  0  0
   -3.7125   -0.6437    1.9097 H   0  0  0  1  0  0  0  0  0  0  0  0
   -2.8810    1.0641    2.4107 O   0  0  0  1  0  0  0  0  0  0  0  0
   -3.7098    1.4493    2.1168 H   0  0  0  1  0  0  0  0  0  0  0  0
   -2.5211   -0.0669    1.0507 C   0  0  0  1  0  0  0  0  0  0  0  0
   -2.7282    0.9575    0.8210 H   0  0  0  1  0  0  0  0  0  0  0  0
   -1.7796   -0.2843    0.7622 O   0  0  0  1  0  0  0  0  0  0  0  0
   -3.4689   -0.7731    0.1057 C   0  0  0  1  0  0  0  0  0  0  0  0
   -4.3120   -0.1387   -0.0725 H   0  0  0  1  0  0  0  0  0  0  0  0
   -3.7969   -1.6824    0.5644 H   0  0  0  1  0  0  0  0  0  0  0  0
   -2.8613   -1.0842   -1.1398 O   0  0  0  1  0  0  0  0  0  0  0  0
   -1.9343   -0.8362   -1.1150 H   0  0  0  1  0  0  0  0  0  0  0  0
  1  2  1  0  0  0  0
  1  3  1  0  0  0  0
  1  4  1  0  0  0  0
  1 18  1  0  0  0  0
  3 24  1  0  0  0  0
  4  5  1  0  0  0  0
  4  6  1  0  0  0  0
  4  8  1  0  0  0  0
  6  7  1  0  0  0  0
  8  9  1  0  0  0  0
  8 10  1  0  0  0  0
  8 12  1  0  0  0  0
 10 11  1  0  0  0  0
 12 13  1  0  0  0  0
 12 14  1  0  0  0  0
 12 16  1  0  0  0  0
 14 15  1  0  0  0  0
 16 17  1  0  0  0  0
 16 18  1  0  0  0  0
 16 19  1  0  0  0  0
 19 20  1  0  0  0  0
 19 21  1  0  0  0  0
 19 22  1  0  0  0  0
 22 23  1  0  0  0  0
 24 25  1  0  0  0  0
 24 26  1  0  0  0  0
 24 40  1  0  0  0  0
 26 27  1  0  0  0  0
 26 28  1  0  0  0  0
 26 30  1  0  0  0  0
 28 29  1  0  0  0  0
 30 31  1  0  0  0  0
 30 32  1  0  0  0  0
 30 34  1  0  0  0  0
 32 33  1  0  0  0  0
 34 35  1  0  0  0  0
 34 36  1  0  0  0  0
 34 38  1  0  0  0  0
 36 37  1  0  0  0  0
 38 39  1  0  0  0  0
 38 40  1  0  0  0  0
 38 41  1  0  0  0  0
 41 42  1  0  0  0  0
 41 43  1  0  0  0  0
 41 44  1  0  0  0  0
 44 45  1  0  0  0  0
M  END
> <ConfClashScore>
0.0584697 

> <ConfOneFourInteractionScore>
-0.974069 

> <ConfScore>
6.63069 

> <ConfScorePBest>
0.0113905 

> <ConfTolerance>
0.848206 

$$$$
L16.****
  PyMOL2.4          3D                             0

 45 46  0  0  0  0  0  0  0  0999 V2000
    0.6227    0.4989    0.0743 C   0  0  0  1  0  0  0  0  0  0  0  0
   -0.0377    0.9935   -0.6069 H   0  0  0  1  0  0  0  0  0  0  0  0
   -0.1379    0.4569    1.2761 O   0  0  0  1  0  0  0  0  0  0  0  0
    1.2775    0.9645    0.2610 C   0  0  0  1  0  0  0  0  0  0  0  0
    1.1106    1.4513    1.1991 H   0  0  0  1  0  0  0  0  0  0  0  0
    1.3419    2.0755   -0.6161 O   0  0  0  1  0  0  0  0  0  0  0  0
    0.4879    2.5133   -0.6418 H   0  0  0  1  0  0  0  0  0  0  0  0
    2.0328    0.6330    0.2555 C   0  0  0  1  0  0  0  0  0  0  0  0
    2.7330    1.2551   -0.2619 H   0  0  0  1  0  0  0  0  0  0  0  0
    2.4568    0.7621    1.6138 O   0  0  0  1  0  0  0  0  0  0  0  0
    3.1961    1.3726    1.6621 H   0  0  0  1  0  0  0  0  0  0  0  0
    2.1332   -0.1630    0.0636 C   0  0  0  1  0  0  0  0  0  0  0  0
    2.7307   -0.6485    0.8067 H   0  0  0  1  0  0  0  0  0  0  0  0
    2.9734   -0.2667   -1.0886 O   0  0  0  1  0  0  0  0  0  0  0  0
    3.7479   -0.7919   -0.8742 H   0  0  0  1  0  0  0  0  0  0  0  0
    1.4785   -0.6286   -0.1232 C   0  0  0  1  0  0  0  0  0  0  0  0
    1.6472   -1.2164   -1.0012 H   0  0  0  1  0  0  0  0  0  0  0  0
    0.7232   -0.2972   -0.1177 O   0  0  0  1  0  0  0  0  0  0  0  0
    1.3452   -1.6893    0.9314 C   0  0  0  1  0  0  0  0  0  0  0  0
    2.1868   -2.3482    0.8814 H   0  0  0  1  0  0  0  0  0  0  0  0
    0.4461   -2.2451    0.7651 H   0  0  0  1  0  0  0  0  0  0  0  0
    1.2953   -1.0838    2.2152 O   0  0  0  1  0  0  0  0  0  0  0  0
    2.1513   -1.1666    2.6420 H   0  0  0  1  0  0  0  0  0  0  0  0
   -1.5269    0.4553    1.0670 C   0  0  0  1  0  0  0  0  0  0  0  0
   -1.6097    0.8978    0.0964 H   0  0  0  1  0  0  0  0  0  0  0  0
   -1.8027    0.9684    1.6512 C   0  0  0  1  0  0  0  0  0  0  0  0
   -2.1664    1.8736    1.2116 H   0  0  0  1  0  0  0  0  0  0  0  0
   -0.6774    1.4356    2.3830 O   0  0  0  1  0  0  0  0  0  0  0  0
   -0.4048    2.2901    2.0406 H   0  0  0  1  0  0  0  0  0  0  0  0
   -2.3282    0.6960    2.2257 C   0  0  0  1  0  0  0  0  0  0  0  0
   -3.1577    1.3626    2.3373 H   0  0  0  1  0  0  0  0  0  0  0  0
   -1.6718    0.8240    3.4877 O   0  0  0  1  0  0  0  0  0  0  0  0
   -2.2645    1.2426    4.1163 H   0  0  0  1  0  0  0  0  0  0  0  0
   -2.5776   -0.0902    2.2153 C   0  0  0  1  0  0  0  0  0  0  0  0
   -2.5165   -0.5337    3.1871 H   0  0  0  1  0  0  0  0  0  0  0  0
   -3.9884   -0.0437    1.9926 O   0  0  0  1  0  0  0  0  0  0  0  0
   -4.4244    0.3086    2.7720 H   0  0  0  1  0  0  0  0  0  0  0  0
   -2.3018   -0.6033    1.6311 C   0  0  0  1  0  0  0  0  0  0  0  0
   -3.1455   -1.0393    1.1382 H   0  0  0  1  0  0  0  0  0  0  0  0
   -1.7763   -0.3309    1.0566 O   0  0  0  1  0  0  0  0  0  0  0  0
   -1.7019   -1.8235    2.2393 C   0  0  0  1  0  0  0  0  0  0  0  0
   -2.4145   -2.2429    2.9184 H   0  0  0  1  0  0  0  0  0  0  0  0
   -0.8246   -1.5312    2.7776 H   0  0  0  1  0  0  0  0  0  0  0  0
   -1.3366   -2.8229    1.3119 O   0  0  0  1  0  0  0  0  0  0  0  0
   -1.3295   -3.6779    1.7483 H   0  0  0  1  0  0  0  0  0  0  0  0
  1  2  1  0  0  0  0
  1  3  1  0  0  0  0
  1  4  1  0  0  0  0
  1 18  1  0  0  0  0
  3 24  1  0  0  0  0
  4  5  1  0  0  0  0
  4  6  1  0  0  0  0
  4  8  1  0  0  0  0
  6  7  1  0  0  0  0
  8  9  1  0  0  0  0
  8 10  1  0  0  0  0
  8 12  1  0  0  0  0
 10 11  1  0  0  0  0
 12 13  1  0  0  0  0
 12 14  1  0  0  0  0
 12 16  1  0  0  0  0
 14 15  1  0  0  0  0
 16 17  1  0  0  0  0
 16 18  1  0  0  0  0
 16 19  1  0  0  0  0
 19 20  1  0  0  0  0
 19 21  1  0  0  0  0
 19 22  1  0  0  0  0
 22 23  1  0  0  0  0
 24 25  1  0  0  0  0
 24 26  1  0  0  0  0
 24 40  1  0  0  0  0
 26 27  1  0  0  0  0
 26 28  1  0  0  0  0
 26 30  1  0  0  0  0
 28 29  1  0  0  0  0
 30 31  1  0  0  0  0
 30 32  1  0  0  0  0
 30 34  1  0  0  0  0
 32 33  1  0  0  0  0
 34 35  1  0  0  0  0
 34 36  1  0  0  0  0
 34 38  1  0  0  0  0
 36 37  1  0  0  0  0
 38 39  1  0  0  0  0
 38 40  1  0  0  0  0
 38 41  1  0  0  0  0
 41 42  1  0  0  0  0
 41 43  1  0  0  0  0
 41 44  1  0  0  0  0
 44 45  1  0  0  0  0
M  END
> <ConfClashScore>
0.058975 

> <ConfOneFourInteractionScore>
-0.980144 

> <ConfScore>
6.63291 

> <ConfScorePBest>
0.0112875 

> <ConfTolerance>
0.859033 

$$$$
L16.****
  PyMOL2.4          3D                             0

 45 46  0  0  0  0  0  0  0  0999 V2000
    0.7531    0.5596   -0.2390 C   0  0  0  1  0  0  0  0  0  0  0  0
   -0.0972    0.9844    0.2522 H   0  0  0  1  0  0  0  0  0  0  0  0
    0.4716    0.8370   -1.6059 O   0  0  0  1  0  0  0  0  0  0  0  0
    1.4311    1.0007   -0.0775 C   0  0  0  1  0  0  0  0  0  0  0  0
    1.6356    1.7095   -0.8525 H   0  0  0  1  0  0  0  0  0  0  0  0
    1.0259    1.8407    1.0045 O   0  0  0  1  0  0  0  0  0  0  0  0
    0.6972    1.2985    1.7253 H   0  0  0  1  0  0  0  0  0  0  0  0
    2.1177    0.6211    0.1773 C   0  0  0  1  0  0  0  0  0  0  0  0
    2.9678    0.9515   -0.3822 H   0  0  0  1  0  0  0  0  0  0  0  0
    2.4140    1.1130    1.4820 O   0  0  0  1  0  0  0  0  0  0  0  0
    2.9842    1.8822    1.4126 H   0  0  0  1  0  0  0  0  0  0  0  0
    2.1263   -0.1985    0.2704 C   0  0  0  1  0  0  0  0  0  0  0  0
    2.5721   -0.4857    1.1998 H   0  0  0  1  0  0  0  0  0  0  0  0
    3.1206   -0.5922   -0.6788 O   0  0  0  1  0  0  0  0  0  0  0  0
    2.7735   -0.4889   -1.5679 H   0  0  0  1  0  0  0  0  0  0  0  0
    1.4483   -0.6397    0.1089 C   0  0  0  1  0  0  0  0  0  0  0  0
    1.6903   -1.4331   -0.5670 H   0  0  0  1  0  0  0  0  0  0  0  0
    0.7617   -0.2601   -0.1459 O   0  0  0  1  0  0  0  0  0  0  0  0
    0.9692   -1.4250    1.2957 C   0  0  0  1  0  0  0  0  0  0  0  0
    0.5482   -0.7569    2.0178 H   0  0  0  1  0  0  0  0  0  0  0  0
    1.7939   -1.9488    1.7320 H   0  0  0  1  0  0  0  0  0  0  0  0
   -0.0187   -2.3588    0.8842 O   0  0  0  1  0  0  0  0  0  0  0  0
   -0.0580   -2.3821   -0.0747 H   0  0  0  1  0  0  0  0  0  0  0  0
   -0.7183    0.2704   -2.0607 C   0  0  0  1  0  0  0  0  0  0  0  0
   -0.9380   -0.4615   -1.3117 H   0  0  0  1  0  0  0  0  0  0  0  0
   -1.2395    0.9095   -2.0369 C   0  0  0  1  0  0  0  0  0  0  0  0
   -0.8552    1.6972   -1.4232 H   0  0  0  1  0  0  0  0  0  0  0  0
   -2.3828    0.4877   -1.2974 O   0  0  0  1  0  0  0  0  0  0  0  0
   -2.1943    0.5415   -0.3576 H   0  0  0  1  0  0  0  0  0  0  0  0
   -1.5601    1.2072   -2.7362 C   0  0  0  1  0  0  0  0  0  0  0  0
   -2.6207    1.3192   -2.6507 H   0  0  0  1  0  0  0  0  0  0  0  0
   -1.1268    2.5663   -2.8090 O   0  0  0  1  0  0  0  0  0  0  0  0
   -1.5622    3.0786   -2.1237 H   0  0  0  1  0  0  0  0  0  0  0  0
   -1.3588    0.8651   -3.4592 C   0  0  0  1  0  0  0  0  0  0  0  0
   -2.2215    0.6936   -4.0685 H   0  0  0  1  0  0  0  0  0  0  0  0
   -0.7027    1.9282   -4.1531 O   0  0  0  1  0  0  0  0  0  0  0  0
   -0.7628    1.7784   -5.0994 H   0  0  0  1  0  0  0  0  0  0  0  0
   -0.8376    0.2260   -3.4830 C   0  0  0  1  0  0  0  0  0  0  0  0
   -0.0460    0.4422   -4.1697 H   0  0  0  1  0  0  0  0  0  0  0  0
   -0.5170   -0.0717   -2.7837 O   0  0  0  1  0  0  0  0  0  0  0  0
   -1.4026   -1.0183   -4.1060 C   0  0  0  1  0  0  0  0  0  0  0  0
   -1.8844   -0.7775   -5.0305 H   0  0  0  1  0  0  0  0  0  0  0  0
   -2.1094   -1.4706   -3.4421 H   0  0  0  1  0  0  0  0  0  0  0  0
   -0.3192   -1.9080   -4.3408 O   0  0  0  1  0  0  0  0  0  0  0  0
   -0.6057   -2.8106   -4.1829 H   0  0  0  1  0  0  0  0  0  0  0  0
  1  2  1  0  0  0  0
  1  3  1  0  0  0  0
  1  4  1  0  0  0  0
  1 18  1  0  0  0  0
  3 24  1  0  0  0  0
  4  5  1  0  0  0  0
  4  6  1  0  0  0  0
  4  8  1  0  0  0  0
  6  7  1  0  0  0  0
  8  9  1  0  0  0  0
  8 10  1  0  0  0  0
  8 12  1  0  0  0  0
 10 11  1  0  0  0  0
 12 13  1  0  0  0  0
 12 14  1  0  0  0  0
 12 16  1  0  0  0  0
 14 15  1  0  0  0  0
 16 17  1  0  0  0  0
 16 18  1  0  0  0  0
 16 19  1  0  0  0  0
 19 20  1  0  0  0  0
 19 21  1  0  0  0  0
 19 22  1  0  0  0  0
 22 23  1  0  0  0  0
 24 25  1  0  0  0  0
 24 26  1  0  0  0  0
 24 40  1  0  0  0  0
 26 27  1  0  0  0  0
 26 28  1  0  0  0  0
 26 30  1  0  0  0  0
 28 29  1  0  0  0  0
 30 31  1  0  0  0  0
 30 32  1  0  0  0  0
 30 34  1  0  0  0  0
 32 33  1  0  0  0  0
 34 35  1  0  0  0  0
 34 36  1  0  0  0  0
 34 38  1  0  0  0  0
 36 37  1  0  0  0  0
 38 39  1  0  0  0  0
 38 40  1  0  0  0  0
 38 41  1  0  0  0  0
 41 42  1  0  0  0  0
 41 43  1  0  0  0  0
 41 44  1  0  0  0  0
 44 45  1  0  0  0  0
M  END
> <ConfClashScore>
0.0592384 

> <ConfOneFourInteractionScore>
-0.963646 

> <ConfScore>
6.64954 

> <ConfScorePBest>
0.0111845 

> <ConfTolerance>
0.785585 

$$$$
L16.****
  PyMOL2.4          3D                             0

 45 46  0  0  0  0  0  0  0  0999 V2000
    0.5705    0.3494    0.2740 C   0  0  0  1  0  0  0  0  0  0  0  0
   -0.3740    0.4328   -0.2218 H   0  0  0  1  0  0  0  0  0  0  0  0
    0.2845    0.8853    1.5607 O   0  0  0  1  0  0  0  0  0  0  0  0
    1.1170    0.8843   -0.0352 C   0  0  0  1  0  0  0  0  0  0  0  0
    0.6841    1.4609   -0.8258 H   0  0  0  1  0  0  0  0  0  0  0  0
    1.3494    1.8791    0.9631 O   0  0  0  1  0  0  0  0  0  0  0  0
    1.0111    2.7242    0.6582 H   0  0  0  1  0  0  0  0  0  0  0  0
    1.8746    0.6280   -0.2369 C   0  0  0  1  0  0  0  0  0  0  0  0
    2.1857    1.0018   -1.1900 H   0  0  0  1  0  0  0  0  0  0  0  0
    2.7409    1.3140    0.6634 O   0  0  0  1  0  0  0  0  0  0  0  0
    3.4116    1.7868    0.1651 H   0  0  0  1  0  0  0  0  0  0  0  0
    2.0854   -0.1624   -0.1296 C   0  0  0  1  0  0  0  0  0  0  0  0
    2.4820   -0.5503   -1.0446 H   0  0  0  1  0  0  0  0  0  0  0  0
    3.2459   -0.1399    0.6830 O   0  0  0  1  0  0  0  0  0  0  0  0
    3.6364   -1.0165    0.7085 H   0  0  0  1  0  0  0  0  0  0  0  0
    1.5389   -0.6973    0.1795 C   0  0  0  1  0  0  0  0  0  0  0  0
    1.9743   -1.2162    1.0079 H   0  0  0  1  0  0  0  0  0  0  0  0
    0.7814   -0.4410    0.3813 O   0  0  0  1  0  0  0  0  0  0  0  0
    1.2632   -1.8479   -0.7489 C   0  0  0  1  0  0  0  0  0  0  0  0
    2.1256   -2.4807   -0.7770 H   0  0  0  1  0  0  0  0  0  0  0  0
    1.0722   -1.4609   -1.7280 H   0  0  0  1  0  0  0  0  0  0  0  0
    0.1444   -2.6204   -0.3379 O   0  0  0  1  0  0  0  0  0  0  0  0
    0.4477   -3.3887    0.1513 H   0  0  0  1  0  0  0  0  0  0  0  0
   -0.8073    0.2759    2.1970 C   0  0  0  1  0  0  0  0  0  0  0  0
   -0.7672   -0.7174    1.8013 H   0  0  0  1  0  0  0  0  0  0  0  0
   -1.4646    0.6784    1.9029 C   0  0  0  1  0  0  0  0  0  0  0  0
   -1.2309    1.2586    1.0347 H   0  0  0  1  0  0  0  0  0  0  0  0
   -2.2075   -0.4068    1.3638 O   0  0  0  1  0  0  0  0  0  0  0  0
   -2.2728   -0.3085    0.4110 H   0  0  0  1  0  0  0  0  0  0  0  0
   -1.9701    1.0765    2.4190 C   0  0  0  1  0  0  0  0  0  0  0  0
   -2.9974    0.8635    2.2089 H   0  0  0  1  0  0  0  0  0  0  0  0
   -1.8688    2.4590    2.0744 O   0  0  0  1  0  0  0  0  0  0  0  0
   -2.2575    2.6026    1.2084 H   0  0  0  1  0  0  0  0  0  0  0  0
   -1.8174    1.0717    3.2296 C   0  0  0  1  0  0  0  0  0  0  0  0
   -1.8745    2.0599    3.6358 H   0  0  0  1  0  0  0  0  0  0  0  0
   -2.9226    0.4268    3.8658 O   0  0  0  1  0  0  0  0  0  0  0  0
   -3.5701    1.0852    4.1282 H   0  0  0  1  0  0  0  0  0  0  0  0
   -1.1601    0.6692    3.5237 C   0  0  0  1  0  0  0  0  0  0  0  0
   -1.4413    0.0349    4.3382 H   0  0  0  1  0  0  0  0  0  0  0  0
   -0.6546    0.2711    3.0076 O   0  0  0  1  0  0  0  0  0  0  0  0
   -0.2328    1.6394    4.2187 C   0  0  0  1  0  0  0  0  0  0  0  0
   -0.7887    2.1743    4.9601 H   0  0  0  1  0  0  0  0  0  0  0  0
    0.1501    2.3273    3.4940 H   0  0  0  1  0  0  0  0  0  0  0  0
    0.8606    0.9871    4.8508 O   0  0  0  1  0  0  0  0  0  0  0  0
    0.5877    0.6677    5.7140 H   0  0  0  1  0  0  0  0  0  0  0  0
  1  2  1  0  0  0  0
  1  3  1  0  0  0  0
  1  4  1  0  0  0  0
  1 18  1  0  0  0  0
  3 24  1  0  0  0  0
  4  5  1  0  0  0  0
  4  6  1  0  0  0  0
  4  8  1  0  0  0  0
  6  7  1  0  0  0  0
  8  9  1  0  0  0  0
  8 10  1  0  0  0  0
  8 12  1  0  0  0  0
 10 11  1  0  0  0  0
 12 13  1  0  0  0  0
 12 14  1  0  0  0  0
 12 16  1  0  0  0  0
 14 15  1  0  0  0  0
 16 17  1  0  0  0  0
 16 18  1  0  0  0  0
 16 19  1  0  0  0  0
 19 20  1  0  0  0  0
 19 21  1  0  0  0  0
 19 22  1  0  0  0  0
 22 23  1  0  0  0  0
 24 25  1  0  0  0  0
 24 26  1  0  0  0  0
 24 40  1  0  0  0  0
 26 27  1  0  0  0  0
 26 28  1  0  0  0  0
 26 30  1  0  0  0  0
 28 29  1  0  0  0  0
 30 31  1  0  0  0  0
 30 32  1  0  0  0  0
 30 34  1  0  0  0  0
 32 33  1  0  0  0  0
 34 35  1  0  0  0  0
 34 36  1  0  0  0  0
 34 38  1  0  0  0  0
 36 37  1  0  0  0  0
 38 39  1  0  0  0  0
 38 40  1  0  0  0  0
 38 41  1  0  0  0  0
 41 42  1  0  0  0  0
 41 43  1  0  0  0  0
 41 44  1  0  0  0  0
 44 45  1  0  0  0  0
M  END
> <ConfClashScore>
0.0576992 

> <ConfOneFourInteractionScore>
-0.976785 

> <ConfScore>
6.66676 

> <ConfScorePBest>
0.0110815 

> <ConfTolerance>
0.87072 

$$$$
L16.****
  PyMOL2.4          3D                             0

 45 46  0  0  0  0  0  0  0  0999 V2000
    0.5915    0.3167    0.4491 C   0  0  0  1  0  0  0  0  0  0  0  0
   -0.3786    0.5970    0.0954 H   0  0  0  1  0  0  0  0  0  0  0  0
    0.4078    0.2566    1.8588 O   0  0  0  1  0  0  0  0  0  0  0  0
    1.1450    0.9183    0.3389 C   0  0  0  1  0  0  0  0  0  0  0  0
    1.2566    1.4786    1.2436 H   0  0  0  1  0  0  0  0  0  0  0  0
    0.5606    1.8903   -0.5216 O   0  0  0  1  0  0  0  0  0  0  0  0
    1.0261    2.7244   -0.4258 H   0  0  0  1  0  0  0  0  0  0  0  0
    1.8874    0.7419    0.0258 C   0  0  0  1  0  0  0  0  0  0  0  0
    2.1578    1.4262   -0.7511 H   0  0  0  1  0  0  0  0  0  0  0  0
    2.8255    1.0657    1.0537 O   0  0  0  1  0  0  0  0  0  0  0  0
    3.6128    1.4486    0.6599 H   0  0  0  1  0  0  0  0  0  0  0  0
    2.0762   -0.0352   -0.1769 C   0  0  0  1  0  0  0  0  0  0  0  0
    2.5318   -0.0909   -1.1434 H   0  0  0  1  0  0  0  0  0  0  0  0
    3.1133   -0.4904    0.6745 O   0  0  0  1  0  0  0  0  0  0  0  0
    3.6233   -1.1678    0.2244 H   0  0  0  1  0  0  0  0  0  0  0  0
    1.5228   -0.6368   -0.0667 C   0  0  0  1  0  0  0  0  0  0  0  0
    1.9603   -1.4796    0.4265 H   0  0  0  1  0  0  0  0  0  0  0  0
    0.7803   -0.4604    0.2464 O   0  0  0  1  0  0  0  0  0  0  0  0
    1.1625   -1.2282   -1.3994 C   0  0  0  1  0  0  0  0  0  0  0  0
    0.3181   -1.8771   -1.2948 H   0  0  0  1  0  0  0  0  0  0  0  0
    1.9913   -1.7808   -1.7899 H   0  0  0  1  0  0  0  0  0  0  0  0
    0.8428   -0.1531   -2.2708 O   0  0  0  1  0  0  0  0  0  0  0  0
   -0.0965    0.0369   -2.2141 H   0  0  0  1  0  0  0  0  0  0  0  0
   -0.6074   -0.5791    2.3142 C   0  0  0  1  0  0  0  0  0  0  0  0
   -0.3256   -1.5359    1.9269 H   0  0  0  1  0  0  0  0  0  0  0  0
   -0.5372   -0.5384    3.1352 C   0  0  0  1  0  0  0  0  0  0  0  0
    0.4305   -0.1910    3.4316 H   0  0  0  1  0  0  0  0  0  0  0  0
   -0.4897   -1.9130    3.4934 O   0  0  0  1  0  0  0  0  0  0  0  0
    0.3394   -2.0993    3.9401 H   0  0  0  1  0  0  0  0  0  0  0  0
   -1.1357   -0.1910    3.5842 C   0  0  0  1  0  0  0  0  0  0  0  0
   -1.4090   -0.8165    4.4082 H   0  0  0  1  0  0  0  0  0  0  0  0
   -0.5680    0.9397    4.2470 O   0  0  0  1  0  0  0  0  0  0  0  0
   -1.0467    1.1070    5.0621 H   0  0  0  1  0  0  0  0  0  0  0  0
   -1.8045    0.1155    3.2111 C   0  0  0  1  0  0  0  0  0  0  0  0
   -2.0225    1.1013    3.5654 H   0  0  0  1  0  0  0  0  0  0  0  0
   -2.8805   -0.6428    3.7672 O   0  0  0  1  0  0  0  0  0  0  0  0
   -2.7173   -1.5788    3.6302 H   0  0  0  1  0  0  0  0  0  0  0  0
   -1.8746    0.0747    2.3901 C   0  0  0  1  0  0  0  0  0  0  0  0
   -2.8152   -0.3663    2.1336 H   0  0  0  1  0  0  0  0  0  0  0  0
   -1.2762   -0.2726    1.9412 O   0  0  0  1  0  0  0  0  0  0  0  0
   -2.0211    1.4262    1.7523 C   0  0  0  1  0  0  0  0  0  0  0  0
   -3.0458    1.7311    1.7962 H   0  0  0  1  0  0  0  0  0  0  0  0
   -1.7077    1.3731    0.7306 H   0  0  0  1  0  0  0  0  0  0  0  0
   -1.2167    2.3719    2.4446 O   0  0  0  1  0  0  0  0  0  0  0  0
   -1.1989    3.1972    1.9545 H   0  0  0  1  0  0  0  0  0  0  0  0
  1  2  1  0  0  0  0
  1  3  1  0  0  0  0
  1  4  1  0  0  0  0
  1 18  1  0  0  0  0
  3 24  1  0  0  0  0
  4  5  1  0  0  0  0
  4  6  1  0  0  0  0
  4  8  1  0  0  0  0
  6  7  1  0  0  0  0
  8  9  1  0  0  0  0
  8 10  1  0  0  0  0
  8 12  1  0  0  0  0
 10 11  1  0  0  0  0
 12 13  1  0  0  0  0
 12 14  1  0  0  0  0
 12 16  1  0  0  0  0
 14 15  1  0  0  0  0
 16 17  1  0  0  0  0
 16 18  1  0  0  0  0
 16 19  1  0  0  0  0
 19 20  1  0  0  0  0
 19 21  1  0  0  0  0
 19 22  1  0  0  0  0
 22 23  1  0  0  0  0
 24 25  1  0  0  0  0
 24 26  1  0  0  0  0
 24 40  1  0  0  0  0
 26 27  1  0  0  0  0
 26 28  1  0  0  0  0
 26 30  1  0  0  0  0
 28 29  1  0  0  0  0
 30 31  1  0  0  0  0
 30 32  1  0  0  0  0
 30 34  1  0  0  0  0
 32 33  1  0  0  0  0
 34 35  1  0  0  0  0
 34 36  1  0  0  0  0
 34 38  1  0  0  0  0
 36 37  1  0  0  0  0
 38 39  1  0  0  0  0
 38 40  1  0  0  0  0
 38 41  1  0  0  0  0
 41 42  1  0  0  0  0
 41 43  1  0  0  0  0
 41 44  1  0  0  0  0
 44 45  1  0  0  0  0
M  END
> <ConfClashScore>
0.0583925 

> <ConfOneFourInteractionScore>
-0.969966 

> <ConfScore>
6.68329 

> <ConfScorePBest>
0.0109785 

> <ConfTolerance>
0.673087 

$$$$
L16.****
  PyMOL2.4          3D                             0

 45 46  0  0  0  0  0  0  0  0999 V2000
    0.6384    0.3482    0.4718 C   0  0  0  1  0  0  0  0  0  0  0  0
    0.3375    0.6783    1.4441 H   0  0  0  1  0  0  0  0  0  0  0  0
   -0.5551    0.4920   -0.2730 O   0  0  0  1  0  0  0  0  0  0  0  0
    1.1451    0.8938    0.1168 C   0  0  0  1  0  0  0  0  0  0  0  0
    0.6083    1.5510   -0.5350 H   0  0  0  1  0  0  0  0  0  0  0  0
    1.5036    1.7597    1.1825 O   0  0  0  1  0  0  0  0  0  0  0  0
    1.4953    2.6686    0.8736 H   0  0  0  1  0  0  0  0  0  0  0  0
    1.8468    0.6367   -0.2323 C   0  0  0  1  0  0  0  0  0  0  0  0
    2.0158    1.0893   -1.1871 H   0  0  0  1  0  0  0  0  0  0  0  0
    2.8040    1.2958    0.6010 O   0  0  0  1  0  0  0  0  0  0  0  0
    3.1839    2.0390    0.1267 H   0  0  0  1  0  0  0  0  0  0  0  0
    2.0417   -0.1649   -0.2264 C   0  0  0  1  0  0  0  0  0  0  0  0
    2.3693   -0.4986   -1.1888 H   0  0  0  1  0  0  0  0  0  0  0  0
    3.2506   -0.2026    0.5364 O   0  0  0  1  0  0  0  0  0  0  0  0
    3.6838   -1.0497    0.4087 H   0  0  0  1  0  0  0  0  0  0  0  0
    1.5351   -0.7105    0.1286 C   0  0  0  1  0  0  0  0  0  0  0  0
    2.0885   -1.2820    0.8442 H   0  0  0  1  0  0  0  0  0  0  0  0
    0.8333   -0.4534    0.4777 O   0  0  0  1  0  0  0  0  0  0  0  0
    1.0371   -1.8157   -0.7576 C   0  0  0  1  0  0  0  0  0  0  0  0
    0.3327   -2.4139   -0.2183 H   0  0  0  1  0  0  0  0  0  0  0  0
    1.8618   -2.4245   -1.0643 H   0  0  0  1  0  0  0  0  0  0  0  0
    0.4067   -1.2624   -1.9039 O   0  0  0  1  0  0  0  0  0  0  0  0
    0.4053   -0.3047   -1.8378 H   0  0  0  1  0  0  0  0  0  0  0  0
   -1.6246    0.8588    0.5359 C   0  0  0  1  0  0  0  0  0  0  0  0
   -1.3273    1.8200    0.9002 H   0  0  0  1  0  0  0  0  0  0  0  0
   -2.2656    0.9103    0.0192 C   0  0  0  1  0  0  0  0  0  0  0  0
   -1.9264    0.9339   -0.9953 H   0  0  0  1  0  0  0  0  0  0  0  0
   -2.8342    2.2050    0.1629 O   0  0  0  1  0  0  0  0  0  0  0  0
   -2.8381    2.6495   -0.6880 H   0  0  0  1  0  0  0  0  0  0  0  0
   -2.9022    0.3917    0.0979 C   0  0  0  1  0  0  0  0  0  0  0  0
   -3.8379    0.9092    0.0576 H   0  0  0  1  0  0  0  0  0  0  0  0
   -2.9284   -0.3761   -1.1138 O   0  0  0  1  0  0  0  0  0  0  0  0
   -3.1985    0.1861   -1.8436 H   0  0  0  1  0  0  0  0  0  0  0  0
   -2.8969   -0.1785    0.6939 C   0  0  0  1  0  0  0  0  0  0  0  0
   -3.1530   -1.1417    0.3046 H   0  0  0  1  0  0  0  0  0  0  0  0
   -4.0490    0.1391    1.4774 O   0  0  0  1  0  0  0  0  0  0  0  0
   -3.8647    0.9084    2.0211 H   0  0  0  1  0  0  0  0  0  0  0  0
   -2.2558   -0.2300    1.2106 C   0  0  0  1  0  0  0  0  0  0  0  0
   -2.5842   -0.2855    2.2275 H   0  0  0  1  0  0  0  0  0  0  0  0
   -1.6193    0.2886    1.1319 O   0  0  0  1  0  0  0  0  0  0  0  0
   -1.5813   -1.5726    1.0427 C   0  0  0  1  0  0  0  0  0  0  0  0
   -1.1342   -1.6131    0.0714 H   0  0  0  1  0  0  0  0  0  0  0  0
   -2.3208   -2.3413    1.1277 H   0  0  0  1  0  0  0  0  0  0  0  0
   -0.5732   -1.7995    2.0188 O   0  0  0  1  0  0  0  0  0  0  0  0
   -0.5658   -2.7282    2.2619 H   0  0  0  1  0  0  0  0  0  0  0  0
  1  2  1  0  0  0  0
  1  3  1  0  0  0  0
  1  4  1  0  0  0  0
  1 18  1  0  0  0  0
  3 24  1  0  0  0  0
  4  5  1  0  0  0  0
  4  6  1  0  0  0  0
  4  8  1  0  0  0  0
  6  7  1  0  0  0  0
  8  9  1  0  0  0  0
  8 10  1  0  0  0  0
  8 12  1  0  0  0  0
 10 11  1  0  0  0  0
 12 13  1  0  0  0  0
 12 14  1  0  0  0  0
 12 16  1  0  0  0  0
 14 15  1  0  0  0  0
 16 17  1  0  0  0  0
 16 18  1  0  0  0  0
 16 19  1  0  0  0  0
 19 20  1  0  0  0  0
 19 21  1  0  0  0  0
 19 22  1  0  0  0  0
 22 23  1  0  0  0  0
 24 25  1  0  0  0  0
 24 26  1  0  0  0  0
 24 40  1  0  0  0  0
 26 27  1  0  0  0  0
 26 28  1  0  0  0  0
 26 30  1  0  0  0  0
 28 29  1  0  0  0  0
 30 31  1  0  0  0  0
 30 32  1  0  0  0  0
 30 34  1  0  0  0  0
 32 33  1  0  0  0  0
 34 35  1  0  0  0  0
 34 36  1  0  0  0  0
 34 38  1  0  0  0  0
 36 37  1  0  0  0  0
 38 39  1  0  0  0  0
 38 40  1  0  0  0  0
 38 41  1  0  0  0  0
 41 42  1  0  0  0  0
 41 43  1  0  0  0  0
 41 44  1  0  0  0  0
 44 45  1  0  0  0  0
M  END
> <ConfClashScore>
0.0588229 

> <ConfOneFourInteractionScore>
-0.97112 

> <ConfScore>
6.6974 

> <ConfScorePBest>
0.0108755 

> <ConfTolerance>
0.93676 

$$$$
L16.****
  PyMOL2.4          3D                             0

 45 46  0  0  0  0  0  0  0  0999 V2000
    0.6331    0.4936    0.1184 C   0  0  0  1  0  0  0  0  0  0  0  0
   -0.0600    0.6982    0.9074 H   0  0  0  1  0  0  0  0  0  0  0  0
   -0.0199    1.0626   -1.0104 O   0  0  0  1  0  0  0  0  0  0  0  0
    1.3244    0.9342    0.2102 C   0  0  0  1  0  0  0  0  0  0  0  0
    1.2912    1.8441   -0.3518 H   0  0  0  1  0  0  0  0  0  0  0  0
    1.3454    1.4101    1.5602 O   0  0  0  1  0  0  0  0  0  0  0  0
    0.6683    2.0810    1.6740 H   0  0  0  1  0  0  0  0  0  0  0  0
    2.0591    0.5643    0.1486 C   0  0  0  1  0  0  0  0  0  0  0  0
    2.7132    0.8508    0.9454 H   0  0  0  1  0  0  0  0  0  0  0  0
    2.6939    1.1475   -0.9908 O   0  0  0  1  0  0  0  0  0  0  0  0
    2.9197    2.0608   -0.7993 H   0  0  0  1  0  0  0  0  0  0  0  0
    2.1025   -0.2452   -0.0045 C   0  0  0  1  0  0  0  0  0  0  0  0
    2.7984   -0.4519   -0.7906 H   0  0  0  1  0  0  0  0  0  0  0  0
    2.7820   -0.7672    1.1387 O   0  0  0  1  0  0  0  0  0  0  0  0
    3.7094   -0.5223    1.0998 H   0  0  0  1  0  0  0  0  0  0  0  0
    1.4112   -0.6858   -0.0963 C   0  0  0  1  0  0  0  0  0  0  0  0
    1.4406   -1.5478    0.5369 H   0  0  0  1  0  0  0  0  0  0  0  0
    0.6765   -0.3159   -0.0347 O   0  0  0  1  0  0  0  0  0  0  0  0
    1.3740   -1.3362   -1.4493 C   0  0  0  1  0  0  0  0  0  0  0  0
    0.4944   -1.9402   -1.5294 H   0  0  0  1  0  0  0  0  0  0  0  0
    2.2414   -1.9505   -1.5725 H   0  0  0  1  0  0  0  0  0  0  0  0
    1.3550   -0.3380   -2.4595 O   0  0  0  1  0  0  0  0  0  0  0  0
    1.8868   -0.6263   -3.2049 H   0  0  0  1  0  0  0  0  0  0  0  0
   -1.2468    0.4561   -1.3190 C   0  0  0  1  0  0  0  0  0  0  0  0
   -0.9938   -0.5830   -1.2863 H   0  0  0  1  0  0  0  0  0  0  0  0
   -1.4011    0.6923   -2.0942 C   0  0  0  1  0  0  0  0  0  0  0  0
   -0.5416    1.1527   -2.5348 H   0  0  0  1  0  0  0  0  0  0  0  0
   -1.4792   -0.5345   -2.8077 O   0  0  0  1  0  0  0  0  0  0  0  0
   -1.1929   -0.3970   -3.7137 H   0  0  0  1  0  0  0  0  0  0  0  0
   -2.0869    1.1165   -2.2680 C   0  0  0  1  0  0  0  0  0  0  0  0
   -2.5894    0.7169   -3.1240 H   0  0  0  1  0  0  0  0  0  0  0  0
   -1.6020    2.3674   -2.7583 O   0  0  0  1  0  0  0  0  0  0  0  0
   -1.2382    2.2473   -3.6385 H   0  0  0  1  0  0  0  0  0  0  0  0
   -2.6181    1.3042   -1.6655 C   0  0  0  1  0  0  0  0  0  0  0  0
   -2.8817    2.3406   -1.7012 H   0  0  0  1  0  0  0  0  0  0  0  0
   -3.8489    0.6765   -2.0304 O   0  0  0  1  0  0  0  0  0  0  0  0
   -4.5820    1.1565   -1.6383 H   0  0  0  1  0  0  0  0  0  0  0  0
   -2.4637    1.0680   -0.8903 C   0  0  0  1  0  0  0  0  0  0  0  0
   -3.3205    0.5876   -0.4661 H   0  0  0  1  0  0  0  0  0  0  0  0
   -1.7780    0.6439   -0.7165 O   0  0  0  1  0  0  0  0  0  0  0  0
   -2.3414    2.2837    0.0026 C   0  0  0  1  0  0  0  0  0  0  0  0
   -3.3042    2.5070    0.4125 H   0  0  0  1  0  0  0  0  0  0  0  0
   -2.0038    3.1103   -0.5871 H   0  0  0  1  0  0  0  0  0  0  0  0
   -1.4262    2.0823    1.0715 O   0  0  0  1  0  0  0  0  0  0  0  0
   -0.6515    2.6334    0.9383 H   0  0  0  1  0  0  0  0  0  0  0  0
  1  2  1  0  0  0  0
  1  3  1  0  0  0  0
  1  4  1  0  0  0  0
  1 18  1  0  0  0  0
  3 24  1  0  0  0  0
  4  5  1  0  0  0  0
  4  6  1  0  0  0  0
  4  8  1  0  0  0  0
  6  7  1  0  0  0  0
  8  9  1  0  0  0  0
  8 10  1  0  0  0  0
  8 12  1  0  0  0  0
 10 11  1  0  0  0  0
 12 13  1  0  0  0  0
 12 14  1  0  0  0  0
 12 16  1  0  0  0  0
 14 15  1  0  0  0  0
 16 17  1  0  0  0  0
 16 18  1  0  0  0  0
 16 19  1  0  0  0  0
 19 20  1  0  0  0  0
 19 21  1  0  0  0  0
 19 22  1  0  0  0  0
 22 23  1  0  0  0  0
 24 25  1  0  0  0  0
 24 26  1  0  0  0  0
 24 40  1  0  0  0  0
 26 27  1  0  0  0  0
 26 28  1  0  0  0  0
 26 30  1  0  0  0  0
 28 29  1  0  0  0  0
 30 31  1  0  0  0  0
 30 32  1  0  0  0  0
 30 34  1  0  0  0  0
 32 33  1  0  0  0  0
 34 35  1  0  0  0  0
 34 36  1  0  0  0  0
 34 38  1  0  0  0  0
 36 37  1  0  0  0  0
 38 39  1  0  0  0  0
 38 40  1  0  0  0  0
 38 41  1  0  0  0  0
 41 42  1  0  0  0  0
 41 43  1  0  0  0  0
 41 44  1  0  0  0  0
 44 45  1  0  0  0  0
M  END
> <ConfClashScore>
0.059394 

> <ConfOneFourInteractionScore>
-0.980681 

> <ConfScore>
6.71185 

> <ConfScorePBest>
0.0107725 

> <ConfTolerance>
1.02547 

$$$$
L16.****
  PyMOL2.4          3D                             0

 45 46  0  0  0  0  0  0  0  0999 V2000
    0.6578    0.3001    0.6033 C   0  0  0  1  0  0  0  0  0  0  0  0
    0.3592    0.3451    1.6298 H   0  0  0  1  0  0  0  0  0  0  0  0
   -0.5080    0.7736   -0.0629 O   0  0  0  1  0  0  0  0  0  0  0  0
    1.2301    0.8720    0.4428 C   0  0  0  1  0  0  0  0  0  0  0  0
    1.4598    1.4255    1.3293 H   0  0  0  1  0  0  0  0  0  0  0  0
    0.5766    1.8631   -0.3515 O   0  0  0  1  0  0  0  0  0  0  0  0
    1.1185    2.6548   -0.3858 H   0  0  0  1  0  0  0  0  0  0  0  0
    1.9239    0.6607    0.0500 C   0  0  0  1  0  0  0  0  0  0  0  0
    2.1343    1.3376   -0.7516 H   0  0  0  1  0  0  0  0  0  0  0  0
    2.9522    0.9824    0.9882 O   0  0  0  1  0  0  0  0  0  0  0  0
    3.3449    1.8271    0.7562 H   0  0  0  1  0  0  0  0  0  0  0  0
    2.0452   -0.1216   -0.1822 C   0  0  0  1  0  0  0  0  0  0  0  0
    2.3690   -0.1754   -1.2006 H   0  0  0  1  0  0  0  0  0  0  0  0
    3.2261   -0.5023    0.5254 O   0  0  0  1  0  0  0  0  0  0  0  0
    3.7963   -1.0130   -0.0540 H   0  0  0  1  0  0  0  0  0  0  0  0
    1.4729   -0.6935   -0.0218 C   0  0  0  1  0  0  0  0  0  0  0  0
    1.9123   -1.5658    0.4153 H   0  0  0  1  0  0  0  0  0  0  0  0
    0.7791   -0.4822    0.3711 O   0  0  0  1  0  0  0  0  0  0  0  0
    1.0126   -1.2133   -1.2890 C   0  0  0  1  0  0  0  0  0  0  0  0
    0.6890   -0.3826   -1.8806 H   0  0  0  1  0  0  0  0  0  0  0  0
    0.1807   -1.8566   -1.0914 H   0  0  0  1  0  0  0  0  0  0  0  0
    1.9330   -1.9361   -2.0462 O   0  0  0  1  0  0  0  0  0  0  0  0
    2.4385   -2.5140   -1.4700 H   0  0  0  1  0  0  0  0  0  0  0  0
   -1.6556    0.5614    0.6951 C   0  0  0  1  0  0  0  0  0  0  0  0
   -1.6609    1.3954    1.3654 H   0  0  0  1  0  0  0  0  0  0  0  0
   -2.2640    0.6000    0.1392 C   0  0  0  1  0  0  0  0  0  0  0  0
   -2.8989    1.4411    0.3243 H   0  0  0  1  0  0  0  0  0  0  0  0
   -1.6721    0.9471   -1.1143 O   0  0  0  1  0  0  0  0  0  0  0  0
   -1.7430    1.8948   -1.2506 H   0  0  0  1  0  0  0  0  0  0  0  0
   -2.7085   -0.0729   -0.0339 C   0  0  0  1  0  0  0  0  0  0  0  0
   -3.7566    0.1418   -0.0161 H   0  0  0  1  0  0  0  0  0  0  0  0
   -2.4716   -0.2836   -1.4265 O   0  0  0  1  0  0  0  0  0  0  0  0
   -3.2788   -0.1152   -1.9180 H   0  0  0  1  0  0  0  0  0  0  0  0
   -2.5440   -0.7844    0.3497 C   0  0  0  1  0  0  0  0  0  0  0  0
   -3.4435   -1.1714    0.7808 H   0  0  0  1  0  0  0  0  0  0  0  0
   -2.2665   -1.7764   -0.6409 O   0  0  0  1  0  0  0  0  0  0  0  0
   -2.8105   -2.5508   -0.4799 H   0  0  0  1  0  0  0  0  0  0  0  0
   -1.9356   -0.8229    0.9055 C   0  0  0  1  0  0  0  0  0  0  0  0
   -1.2941   -1.6550    0.7030 H   0  0  0  1  0  0  0  0  0  0  0  0
   -1.4910   -0.1501    1.0786 O   0  0  0  1  0  0  0  0  0  0  0  0
   -2.4939   -1.2079    2.2479 C   0  0  0  1  0  0  0  0  0  0  0  0
   -1.7034   -1.2796    2.9654 H   0  0  0  1  0  0  0  0  0  0  0  0
   -2.9987   -2.1487    2.1774 H   0  0  0  1  0  0  0  0  0  0  0  0
   -3.4126   -0.1911    2.6367 O   0  0  0  1  0  0  0  0  0  0  0  0
   -4.1557   -0.5892    3.0959 H   0  0  0  1  0  0  0  0  0  0  0  0
  1  2  1  0  0  0  0
  1  3  1  0  0  0  0
  1  4  1  0  0  0  0
  1 18  1  0  0  0  0
  3 24  1  0  0  0  0
  4  5  1  0  0  0  0
  4  6  1  0  0  0  0
  4  8  1  0  0  0  0
  6  7  1  0  0  0  0
  8  9  1  0  0  0  0
  8 10  1  0  0  0  0
  8 12  1  0  0  0  0
 10 11  1  0  0  0  0
 12 13  1  0  0  0  0
 12 14  1  0  0  0  0
 12 16  1  0  0  0  0
 14 15  1  0  0  0  0
 16 17  1  0  0  0  0
 16 18  1  0  0  0  0
 16 19  1  0  0  0  0
 19 20  1  0  0  0  0
 19 21  1  0  0  0  0
 19 22  1  0  0  0  0
 22 23  1  0  0  0  0
 24 25  1  0  0  0  0
 24 26  1  0  0  0  0
 24 40  1  0  0  0  0
 26 27  1  0  0  0  0
 26 28  1  0  0  0  0
 26 30  1  0  0  0  0
 28 29  1  0  0  0  0
 30 31  1  0  0  0  0
 30 32  1  0  0  0  0
 30 34  1  0  0  0  0
 32 33  1  0  0  0  0
 34 35  1  0  0  0  0
 34 36  1  0  0  0  0
 34 38  1  0  0  0  0
 36 37  1  0  0  0  0
 38 39  1  0  0  0  0
 38 40  1  0  0  0  0
 38 41  1  0  0  0  0
 41 42  1  0  0  0  0
 41 43  1  0  0  0  0
 41 44  1  0  0  0  0
 44 45  1  0  0  0  0
M  END
> <ConfClashScore>
0.0581059 

> <ConfOneFourInteractionScore>
-0.970689 

> <ConfScore>
6.71403 

> <ConfScorePBest>
0.0106695 

> <ConfTolerance>
0.982433 

$$$$
L16.****
  PyMOL2.4          3D                             0

 45 46  0  0  0  0  0  0  0  0999 V2000
    0.5898    0.4187   -0.0200 C   0  0  0  1  0  0  0  0  0  0  0  0
    0.1040    0.9890   -0.7839 H   0  0  0  1  0  0  0  0  0  0  0  0
   -0.4295    0.2963    0.9652 O   0  0  0  1  0  0  0  0  0  0  0  0
    1.1595    0.8652    0.3756 C   0  0  0  1  0  0  0  0  0  0  0  0
    0.7551    1.2702    1.2796 H   0  0  0  1  0  0  0  0  0  0  0  0
    1.2820    2.0366   -0.4352 O   0  0  0  1  0  0  0  0  0  0  0  0
    1.2722    2.8164    0.1247 H   0  0  0  1  0  0  0  0  0  0  0  0
    1.9087    0.5484    0.5119 C   0  0  0  1  0  0  0  0  0  0  0  0
    2.2026    0.6854    1.5316 H   0  0  0  1  0  0  0  0  0  0  0  0
    2.7859    1.4458   -0.1712 O   0  0  0  1  0  0  0  0  0  0  0  0
    3.4127    1.8185    0.4531 H   0  0  0  1  0  0  0  0  0  0  0  0
    2.0881   -0.2141    0.2530 C   0  0  0  1  0  0  0  0  0  0  0  0
    2.5780   -0.7844    1.0144 H   0  0  0  1  0  0  0  0  0  0  0  0
    3.1198   -0.0607   -0.7234 O   0  0  0  1  0  0  0  0  0  0  0  0
    3.6345   -0.8694   -0.7756 H   0  0  0  1  0  0  0  0  0  0  0  0
    1.5185   -0.6607   -0.1426 C   0  0  0  1  0  0  0  0  0  0  0  0
    1.9205   -1.0969   -1.0331 H   0  0  0  1  0  0  0  0  0  0  0  0
    0.7692   -0.3438   -0.2789 O   0  0  0  1  0  0  0  0  0  0  0  0
    1.1913   -1.8853    0.6668 C   0  0  0  1  0  0  0  0  0  0  0  0
    0.8140   -1.5891    1.6233 H   0  0  0  1  0  0  0  0  0  0  0  0
    2.0765   -2.4719    0.7980 H   0  0  0  1  0  0  0  0  0  0  0  0
    0.2093   -2.6573   -0.0095 O   0  0  0  1  0  0  0  0  0  0  0  0
   -0.3481   -3.1014    0.6337 H   0  0  0  1  0  0  0  0  0  0  0  0
   -1.7007    0.4383    0.4666 C   0  0  0  1  0  0  0  0  0  0  0  0
   -1.7137   -0.2857   -0.3212 H   0  0  0  1  0  0  0  0  0  0  0  0
   -2.2215    0.2174    1.0672 C   0  0  0  1  0  0  0  0  0  0  0  0
   -2.6844   -0.7223    0.8490 H   0  0  0  1  0  0  0  0  0  0  0  0
   -1.3616   -0.1192    2.1476 O   0  0  0  1  0  0  0  0  0  0  0  0
   -1.4797   -1.0444    2.3750 H   0  0  0  1  0  0  0  0  0  0  0  0
   -2.7718    0.7593    1.3567 C   0  0  0  1  0  0  0  0  0  0  0  0
   -2.7422    0.7907    2.4258 H   0  0  0  1  0  0  0  0  0  0  0  0
   -4.0925    0.2709    1.1174 O   0  0  0  1  0  0  0  0  0  0  0  0
   -4.1418   -0.0999    0.2333 H   0  0  0  1  0  0  0  0  0  0  0  0
   -2.8008    1.5224    1.0449 C   0  0  0  1  0  0  0  0  0  0  0  0
   -2.8247    2.2561    1.8233 H   0  0  0  1  0  0  0  0  0  0  0  0
   -4.0892    1.6810    0.4473 O   0  0  0  1  0  0  0  0  0  0  0  0
   -4.5732    2.3704    0.9077 H   0  0  0  1  0  0  0  0  0  0  0  0
   -2.2801    1.7433    0.4443 C   0  0  0  1  0  0  0  0  0  0  0  0
   -2.8058    2.2159   -0.3589 H   0  0  0  1  0  0  0  0  0  0  0  0
   -1.7297    1.2014    0.1548 O   0  0  0  1  0  0  0  0  0  0  0  0
   -1.4072    2.9065    0.9576 C   0  0  0  1  0  0  0  0  0  0  0  0
   -0.6403    3.1037    0.2380 H   0  0  0  1  0  0  0  0  0  0  0  0
   -0.9602    2.6168    1.8856 H   0  0  0  1  0  0  0  0  0  0  0  0
   -2.1424    4.0755    1.1603 O   0  0  0  1  0  0  0  0  0  0  0  0
   -2.4400    4.1129    2.0723 H   0  0  0  1  0  0  0  0  0  0  0  0
  1  2  1  0  0  0  0
  1  3  1  0  0  0  0
  1  4  1  0  0  0  0
  1 18  1  0  0  0  0
  3 24  1  0  0  0  0
  4  5  1  0  0  0  0
  4  6  1  0  0  0  0
  4  8  1  0  0  0  0
  6  7  1  0  0  0  0
  8  9  1  0  0  0  0
  8 10  1  0  0  0  0
  8 12  1  0  0  0  0
 10 11  1  0  0  0  0
 12 13  1  0  0  0  0
 12 14  1  0  0  0  0
 12 16  1  0  0  0  0
 14 15  1  0  0  0  0
 16 17  1  0  0  0  0
 16 18  1  0  0  0  0
 16 19  1  0  0  0  0
 19 20  1  0  0  0  0
 19 21  1  0  0  0  0
 19 22  1  0  0  0  0
 22 23  1  0  0  0  0
 24 25  1  0  0  0  0
 24 26  1  0  0  0  0
 24 40  1  0  0  0  0
 26 27  1  0  0  0  0
 26 28  1  0  0  0  0
 26 30  1  0  0  0  0
 28 29  1  0  0  0  0
 30 31  1  0  0  0  0
 30 32  1  0  0  0  0
 30 34  1  0  0  0  0
 32 33  1  0  0  0  0
 34 35  1  0  0  0  0
 34 36  1  0  0  0  0
 34 38  1  0  0  0  0
 36 37  1  0  0  0  0
 38 39  1  0  0  0  0
 38 40  1  0  0  0  0
 38 41  1  0  0  0  0
 41 42  1  0  0  0  0
 41 43  1  0  0  0  0
 41 44  1  0  0  0  0
 44 45  1  0  0  0  0
M  END
> <ConfClashScore>
0.0596085 

> <ConfOneFourInteractionScore>
-0.973836 

> <ConfScore>
6.7142 

> <ConfScorePBest>
0.0105665 

> <ConfTolerance>
0.631118 

$$$$
L16.****
  PyMOL2.4          3D                             0

 45 46  0  0  0  0  0  0  0  0999 V2000
    0.5580    0.5295    0.2326 C   0  0  0  1  0  0  0  0  0  0  0  0
   -0.1623    1.0586   -0.3557 H   0  0  0  1  0  0  0  0  0  0  0  0
   -0.1029    0.3844    1.4843 O   0  0  0  1  0  0  0  0  0  0  0  0
    1.2187    0.9936    0.4009 C   0  0  0  1  0  0  0  0  0  0  0  0
    1.1149    1.4791    1.3488 H   0  0  0  1  0  0  0  0  0  0  0  0
    1.1036    2.0917   -0.5077 O   0  0  0  1  0  0  0  0  0  0  0  0
    1.2638    1.7848   -1.4031 H   0  0  0  1  0  0  0  0  0  0  0  0
    1.9759    0.6791    0.3112 C   0  0  0  1  0  0  0  0  0  0  0  0
    2.6251    1.3521   -0.2090 H   0  0  0  1  0  0  0  0  0  0  0  0
    2.4706    0.7521    1.6508 O   0  0  0  1  0  0  0  0  0  0  0  0
    3.4211    0.6178    1.6492 H   0  0  0  1  0  0  0  0  0  0  0  0
    2.0723   -0.0986    0.0534 C   0  0  0  1  0  0  0  0  0  0  0  0
    2.7447   -0.6253    0.6979 H   0  0  0  1  0  0  0  0  0  0  0  0
    2.8126   -0.0632   -1.1682 O   0  0  0  1  0  0  0  0  0  0  0  0
    3.7526   -0.0625   -0.9733 H   0  0  0  1  0  0  0  0  0  0  0  0
    1.4116   -0.5628   -0.1150 C   0  0  0  1  0  0  0  0  0  0  0  0
    1.5147   -1.0395   -1.0674 H   0  0  0  1  0  0  0  0  0  0  0  0
    0.6544   -0.2483   -0.0253 O   0  0  0  1  0  0  0  0  0  0  0  0
    1.4138   -1.7476    0.8075 C   0  0  0  1  0  0  0  0  0  0  0  0
    0.5196   -2.3120    0.6436 H   0  0  0  1  0  0  0  0  0  0  0  0
    1.4340   -1.3960    1.8179 H   0  0  0  1  0  0  0  0  0  0  0  0
    2.5332   -2.5963    0.5978 O   0  0  0  1  0  0  0  0  0  0  0  0
    2.9964   -2.3249   -0.1980 H   0  0  0  1  0  0  0  0  0  0  0  0
   -1.3073   -0.3350    1.4730 C   0  0  0  1  0  0  0  0  0  0  0  0
   -1.4432   -0.5216    0.4282 H   0  0  0  1  0  0  0  0  0  0  0  0
   -1.8688    0.2042    1.7462 C   0  0  0  1  0  0  0  0  0  0  0  0
   -1.4831    1.2021    1.7602 H   0  0  0  1  0  0  0  0  0  0  0  0
   -2.8124    0.2578    0.6847 O   0  0  0  1  0  0  0  0  0  0  0  0
   -2.9439    1.1708    0.4186 H   0  0  0  1  0  0  0  0  0  0  0  0
   -2.3050    0.0373    2.4261 C   0  0  0  1  0  0  0  0  0  0  0  0
   -3.3491    0.2046    2.2626 H   0  0  0  1  0  0  0  0  0  0  0  0
   -1.9703    1.1041    3.3150 O   0  0  0  1  0  0  0  0  0  0  0  0
   -1.0265    1.2741    3.2706 H   0  0  0  1  0  0  0  0  0  0  0  0
   -2.1790   -0.6694    2.8324 C   0  0  0  1  0  0  0  0  0  0  0  0
   -3.1125   -1.1676    2.9911 H   0  0  0  1  0  0  0  0  0  0  0  0
   -1.8081   -0.3378    4.1721 O   0  0  0  1  0  0  0  0  0  0  0  0
   -2.5988   -0.1980    4.6982 H   0  0  0  1  0  0  0  0  0  0  0  0
   -1.6175   -1.2085    2.5592 C   0  0  0  1  0  0  0  0  0  0  0  0
   -0.9520   -1.4662    3.3564 H   0  0  0  1  0  0  0  0  0  0  0  0
   -1.1813   -1.0416    1.8793 O   0  0  0  1  0  0  0  0  0  0  0  0
   -2.2414   -2.5455    2.2781 C   0  0  0  1  0  0  0  0  0  0  0  0
   -2.7625   -2.5055    1.3444 H   0  0  0  1  0  0  0  0  0  0  0  0
   -2.9292   -2.7886    3.0609 H   0  0  0  1  0  0  0  0  0  0  0  0
   -1.2295   -3.5416    2.2121 O   0  0  0  1  0  0  0  0  0  0  0  0
   -1.4082   -4.2236    2.8636 H   0  0  0  1  0  0  0  0  0  0  0  0
  1  2  1  0  0  0  0
  1  3  1  0  0  0  0
  1  4  1  0  0  0  0
  1 18  1  0  0  0  0
  3 24  1  0  0  0  0
  4  5  1  0  0  0  0
  4  6  1  0  0  0  0
  4  8  1  0  0  0  0
  6  7  1  0  0  0  0
  8  9  1  0  0  0  0
  8 10  1  0  0  0  0
  8 12  1  0  0  0  0
 10 11  1  0  0  0  0
 12 13  1  0  0  0  0
 12 14  1  0  0  0  0
 12 16  1  0  0  0  0
 14 15  1  0  0  0  0
 16 17  1  0  0  0  0
 16 18  1  0  0  0  0
 16 19  1  0  0  0  0
 19 20  1  0  0  0  0
 19 21  1  0  0  0  0
 19 22  1  0  0  0  0
 22 23  1  0  0  0  0
 24 25  1  0  0  0  0
 24 26  1  0  0  0  0
 24 40  1  0  0  0  0
 26 27  1  0  0  0  0
 26 28  1  0  0  0  0
 26 30  1  0  0  0  0
 28 29  1  0  0  0  0
 30 31  1  0  0  0  0
 30 32  1  0  0  0  0
 30 34  1  0  0  0  0
 32 33  1  0  0  0  0
 34 35  1  0  0  0  0
 34 36  1  0  0  0  0
 34 38  1  0  0  0  0
 36 37  1  0  0  0  0
 38 39  1  0  0  0  0
 38 40  1  0  0  0  0
 38 41  1  0  0  0  0
 41 42  1  0  0  0  0
 41 43  1  0  0  0  0
 41 44  1  0  0  0  0
 44 45  1  0  0  0  0
M  END
> <ConfClashScore>
0.0589879 

> <ConfOneFourInteractionScore>
-0.954517 

> <ConfScore>
6.72056 

> <ConfScorePBest>
0.0104635 

> <ConfTolerance>
0.774402 

$$$$
L16.****
  PyMOL2.4          3D                             0

 45 46  0  0  0  0  0  0  0  0999 V2000
    0.5581    0.4247   -0.0888 C   0  0  0  1  0  0  0  0  0  0  0  0
   -0.3417    0.5406    0.4786 H   0  0  0  1  0  0  0  0  0  0  0  0
    0.1805    0.9619   -1.3511 O   0  0  0  1  0  0  0  0  0  0  0  0
    1.1414    0.9396    0.1851 C   0  0  0  1  0  0  0  0  0  0  0  0
    1.1877    1.8222   -0.4180 H   0  0  0  1  0  0  0  0  0  0  0  0
    0.6944    1.4606    1.4377 O   0  0  0  1  0  0  0  0  0  0  0  0
    1.2254    2.2244    1.6749 H   0  0  0  1  0  0  0  0  0  0  0  0
    1.8975    0.6542    0.3498 C   0  0  0  1  0  0  0  0  0  0  0  0
    2.2335    0.9911    1.3082 H   0  0  0  1  0  0  0  0  0  0  0  0
    2.7399    1.3947   -0.5353 O   0  0  0  1  0  0  0  0  0  0  0  0
    3.5839    1.5618   -0.1095 H   0  0  0  1  0  0  0  0  0  0  0  0
    2.0702   -0.1452    0.2409 C   0  0  0  1  0  0  0  0  0  0  0  0
    2.5982   -0.5537    1.0771 H   0  0  0  1  0  0  0  0  0  0  0  0
    3.0385   -0.2365   -0.8057 O   0  0  0  1  0  0  0  0  0  0  0  0
    3.7912   -0.7492   -0.5021 H   0  0  0  1  0  0  0  0  0  0  0  0
    1.4869   -0.6601   -0.0330 C   0  0  0  1  0  0  0  0  0  0  0  0
    1.8552   -1.2332   -0.8580 H   0  0  0  1  0  0  0  0  0  0  0  0
    0.7307   -0.3747   -0.1977 O   0  0  0  1  0  0  0  0  0  0  0  0
    1.1916   -1.7482    0.9589 C   0  0  0  1  0  0  0  0  0  0  0  0
    0.9191   -1.3104    1.8965 H   0  0  0  1  0  0  0  0  0  0  0  0
    2.0619   -2.3570    1.0885 H   0  0  0  1  0  0  0  0  0  0  0  0
    0.1205   -2.5508    0.4836 O   0  0  0  1  0  0  0  0  0  0  0  0
   -0.1175   -2.2745   -0.4044 H   0  0  0  1  0  0  0  0  0  0  0  0
   -0.8841    1.8723   -1.3461 C   0  0  0  1  0  0  0  0  0  0  0  0
   -1.4784    1.5206   -0.5288 H   0  0  0  1  0  0  0  0  0  0  0  0
   -1.2704    1.7537   -2.0654 C   0  0  0  1  0  0  0  0  0  0  0  0
   -2.2279    1.3014   -1.9120 H   0  0  0  1  0  0  0  0  0  0  0  0
   -0.5549    0.7063   -2.7291 O   0  0  0  1  0  0  0  0  0  0  0  0
    0.0904    1.0888   -3.3281 H   0  0  0  1  0  0  0  0  0  0  0  0
   -1.3214    2.3683   -2.6131 C   0  0  0  1  0  0  0  0  0  0  0  0
   -1.1042    2.0450   -3.6097 H   0  0  0  1  0  0  0  0  0  0  0  0
   -2.7357    2.5646   -2.6478 O   0  0  0  1  0  0  0  0  0  0  0  0
   -3.0504    2.7850   -1.7681 H   0  0  0  1  0  0  0  0  0  0  0  0
   -0.9856    3.1017   -2.4406 C   0  0  0  1  0  0  0  0  0  0  0  0
   -1.6955    3.8836   -2.6128 H   0  0  0  1  0  0  0  0  0  0  0  0
   -0.0345    3.3462   -3.4787 O   0  0  0  1  0  0  0  0  0  0  0  0
   -0.1945    4.2114   -3.8627 H   0  0  0  1  0  0  0  0  0  0  0  0
   -0.5993    3.2204   -1.7214 C   0  0  0  1  0  0  0  0  0  0  0  0
    0.3763    3.6214   -1.9011 H   0  0  0  1  0  0  0  0  0  0  0  0
   -0.5484    2.6057   -1.1737 O   0  0  0  1  0  0  0  0  0  0  0  0
   -1.2218    4.3495   -0.9516 C   0  0  0  1  0  0  0  0  0  0  0  0
   -2.2232    4.0863   -0.6816 H   0  0  0  1  0  0  0  0  0  0  0  0
   -1.2355    5.2296   -1.5599 H   0  0  0  1  0  0  0  0  0  0  0  0
   -0.4655    4.6005    0.2256 O   0  0  0  1  0  0  0  0  0  0  0  0
   -0.5957    5.5105    0.5021 H   0  0  0  1  0  0  0  0  0  0  0  0
  1  2  1  0  0  0  0
  1  3  1  0  0  0  0
  1  4  1  0  0  0  0
  1 18  1  0  0  0  0
  3 24  1  0  0  0  0
  4  5  1  0  0  0  0
  4  6  1  0  0  0  0
  4  8  1  0  0  0  0
  6  7  1  0  0  0  0
  8  9  1  0  0  0  0
  8 10  1  0  0  0  0
  8 12  1  0  0  0  0
 10 11  1  0  0  0  0
 12 13  1  0  0  0  0
 12 14  1  0  0  0  0
 12 16  1  0  0  0  0
 14 15  1  0  0  0  0
 16 17  1  0  0  0  0
 16 18  1  0  0  0  0
 16 19  1  0  0  0  0
 19 20  1  0  0  0  0
 19 21  1  0  0  0  0
 19 22  1  0  0  0  0
 22 23  1  0  0  0  0
 24 25  1  0  0  0  0
 24 26  1  0  0  0  0
 24 40  1  0  0  0  0
 26 27  1  0  0  0  0
 26 28  1  0  0  0  0
 26 30  1  0  0  0  0
 28 29  1  0  0  0  0
 30 31  1  0  0  0  0
 30 32  1  0  0  0  0
 30 34  1  0  0  0  0
 32 33  1  0  0  0  0
 34 35  1  0  0  0  0
 34 36  1  0  0  0  0
 34 38  1  0  0  0  0
 36 37  1  0  0  0  0
 38 39  1  0  0  0  0
 38 40  1  0  0  0  0
 38 41  1  0  0  0  0
 41 42  1  0  0  0  0
 41 43  1  0  0  0  0
 41 44  1  0  0  0  0
 44 45  1  0  0  0  0
M  END
> <ConfClashScore>
0.0590882 

> <ConfOneFourInteractionScore>
-0.980879 

> <ConfScore>
6.72895 

> <ConfScorePBest>
0.0103605 

> <ConfTolerance>
0.860646 

$$$$
L16.****
  PyMOL2.4          3D                             0

 45 46  0  0  0  0  0  0  0  0999 V2000
    0.5354    0.4275   -0.0219 C   0  0  0  1  0  0  0  0  0  0  0  0
   -0.3415    0.6223    0.5595 H   0  0  0  1  0  0  0  0  0  0  0  0
    0.1431    0.8362   -1.3272 O   0  0  0  1  0  0  0  0  0  0  0  0
    1.1567    0.9311    0.1799 C   0  0  0  1  0  0  0  0  0  0  0  0
    1.1821    1.7823   -0.4679 H   0  0  0  1  0  0  0  0  0  0  0  0
    0.7825    1.5226    1.4266 O   0  0  0  1  0  0  0  0  0  0  0  0
    1.1904    2.3880    1.5059 H   0  0  0  1  0  0  0  0  0  0  0  0
    1.9145    0.6250    0.2916 C   0  0  0  1  0  0  0  0  0  0  0  0
    2.2653    0.9251    1.2569 H   0  0  0  1  0  0  0  0  0  0  0  0
    2.8075    1.3378   -0.5463 O   0  0  0  1  0  0  0  0  0  0  0  0
    3.6431    1.4637   -0.0907 H   0  0  0  1  0  0  0  0  0  0  0  0
    2.0508   -0.1837    0.2016 C   0  0  0  1  0  0  0  0  0  0  0  0
    2.5417   -0.5593    1.0750 H   0  0  0  1  0  0  0  0  0  0  0  0
    3.0471   -0.3946   -0.7836 O   0  0  0  1  0  0  0  0  0  0  0  0
    3.9158   -0.3192   -0.3820 H   0  0  0  1  0  0  0  0  0  0  0  0
    1.4295   -0.6872   -0.0002 C   0  0  0  1  0  0  0  0  0  0  0  0
    1.7070   -1.2174   -0.8873 H   0  0  0  1  0  0  0  0  0  0  0  0
    0.6717   -0.3812   -0.1119 O   0  0  0  1  0  0  0  0  0  0  0  0
    1.2204   -1.8441    0.9341 C   0  0  0  1  0  0  0  0  0  0  0  0
    0.6136   -1.5186    1.7531 H   0  0  0  1  0  0  0  0  0  0  0  0
    2.1728   -2.1656    1.3008 H   0  0  0  1  0  0  0  0  0  0  0  0
    0.5807   -2.9433    0.3016 O   0  0  0  1  0  0  0  0  0  0  0  0
    1.1952   -3.6781    0.2376 H   0  0  0  1  0  0  0  0  0  0  0  0
   -1.1728    0.5303   -1.7064 C   0  0  0  1  0  0  0  0  0  0  0  0
   -1.6839    0.5312   -0.7664 H   0  0  0  1  0  0  0  0  0  0  0  0
   -1.3816    1.1894   -2.1566 C   0  0  0  1  0  0  0  0  0  0  0  0
   -2.0690    1.8198   -1.6322 H   0  0  0  1  0  0  0  0  0  0  0  0
   -0.2145    1.9984   -2.2154 O   0  0  0  1  0  0  0  0  0  0  0  0
   -0.4612    2.9019   -2.4262 H   0  0  0  1  0  0  0  0  0  0  0  0
   -1.5988    1.0976   -2.9470 C   0  0  0  1  0  0  0  0  0  0  0  0
   -1.0143    1.7561   -3.5550 H   0  0  0  1  0  0  0  0  0  0  0  0
   -2.8984    1.6723   -3.0919 O   0  0  0  1  0  0  0  0  0  0  0  0
   -2.9333    2.1854   -3.9026 H   0  0  0  1  0  0  0  0  0  0  0  0
   -1.6070    0.3460   -3.2867 C   0  0  0  1  0  0  0  0  0  0  0  0
   -1.0512    0.3534   -4.2010 H   0  0  0  1  0  0  0  0  0  0  0  0
   -2.9422    0.1891   -3.7711 O   0  0  0  1  0  0  0  0  0  0  0  0
   -2.9807   -0.5625   -4.3670 H   0  0  0  1  0  0  0  0  0  0  0  0
   -1.3982   -0.3131   -2.8365 C   0  0  0  1  0  0  0  0  0  0  0  0
   -2.0927   -1.1167   -2.9654 H   0  0  0  1  0  0  0  0  0  0  0  0
   -1.1809   -0.2213   -2.0461 O   0  0  0  1  0  0  0  0  0  0  0  0
   -0.1368   -0.9023   -3.4261 C   0  0  0  1  0  0  0  0  0  0  0  0
    0.6875   -0.2670   -3.1777 H   0  0  0  1  0  0  0  0  0  0  0  0
   -0.2442   -0.9487   -4.4897 H   0  0  0  1  0  0  0  0  0  0  0  0
    0.1313   -2.2088   -2.9377 O   0  0  0  1  0  0  0  0  0  0  0  0
    0.7622   -2.1579   -2.2160 H   0  0  0  1  0  0  0  0  0  0  0  0
  1  2  1  0  0  0  0
  1  3  1  0  0  0  0
  1  4  1  0  0  0  0
  1 18  1  0  0  0  0
  3 24  1  0  0  0  0
  4  5  1  0  0  0  0
  4  6  1  0  0  0  0
  4  8  1  0  0  0  0
  6  7  1  0  0  0  0
  8  9  1  0  0  0  0
  8 10  1  0  0  0  0
  8 12  1  0  0  0  0
 10 11  1  0  0  0  0
 12 13  1  0  0  0  0
 12 14  1  0  0  0  0
 12 16  1  0  0  0  0
 14 15  1  0  0  0  0
 16 17  1  0  0  0  0
 16 18  1  0  0  0  0
 16 19  1  0  0  0  0
 19 20  1  0  0  0  0
 19 21  1  0  0  0  0
 19 22  1  0  0  0  0
 22 23  1  0  0  0  0
 24 25  1  0  0  0  0
 24 26  1  0  0  0  0
 24 40  1  0  0  0  0
 26 27  1  0  0  0  0
 26 28  1  0  0  0  0
 26 30  1  0  0  0  0
 28 29  1  0  0  0  0
 30 31  1  0  0  0  0
 30 32  1  0  0  0  0
 30 34  1  0  0  0  0
 32 33  1  0  0  0  0
 34 35  1  0  0  0  0
 34 36  1  0  0  0  0
 34 38  1  0  0  0  0
 36 37  1  0  0  0  0
 38 39  1  0  0  0  0
 38 40  1  0  0  0  0
 38 41  1  0  0  0  0
 41 42  1  0  0  0  0
 41 43  1  0  0  0  0
 41 44  1  0  0  0  0
 44 45  1  0  0  0  0
M  END
> <ConfClashScore>
0.0600319 

> <ConfOneFourInteractionScore>
-0.957665 

> <ConfScore>
6.72905 

> <ConfScorePBest>
0.0102575 

> <ConfTolerance>
0.633129 

$$$$
L16.****
  PyMOL2.4          3D                             0

 45 46  0  0  0  0  0  0  0  0999 V2000
    0.5499    0.3552    0.2648 C   0  0  0  1  0  0  0  0  0  0  0  0
   -0.3593    0.4204   -0.2956 H   0  0  0  1  0  0  0  0  0  0  0  0
    0.1460    0.8783    1.5249 O   0  0  0  1  0  0  0  0  0  0  0  0
    1.1027    0.8908   -0.0317 C   0  0  0  1  0  0  0  0  0  0  0  0
    0.6869    1.4920   -0.8130 H   0  0  0  1  0  0  0  0  0  0  0  0
    1.3093    1.8474    1.0088 O   0  0  0  1  0  0  0  0  0  0  0  0
    1.0400    2.7166    0.7031 H   0  0  0  1  0  0  0  0  0  0  0  0
    1.8639    0.6345   -0.2195 C   0  0  0  1  0  0  0  0  0  0  0  0
    2.1298    0.9554   -1.2050 H   0  0  0  1  0  0  0  0  0  0  0  0
    2.7755    1.3885    0.5817 O   0  0  0  1  0  0  0  0  0  0  0  0
    3.5719    1.5691    0.0771 H   0  0  0  1  0  0  0  0  0  0  0  0
    2.0720   -0.1564   -0.1111 C   0  0  0  1  0  0  0  0  0  0  0  0
    2.5856   -0.5500   -0.9632 H   0  0  0  1  0  0  0  0  0  0  0  0
    3.0849   -0.1905    0.8974 O   0  0  0  1  0  0  0  0  0  0  0  0
    3.7585   -0.8296    0.6535 H   0  0  0  1  0  0  0  0  0  0  0  0
    1.5192   -0.6920    0.1854 C   0  0  0  1  0  0  0  0  0  0  0  0
    1.9372   -1.2439    1.0012 H   0  0  0  1  0  0  0  0  0  0  0  0
    0.7580   -0.4357    0.3733 O   0  0  0  1  0  0  0  0  0  0  0  0
    1.3311   -1.7749   -0.8200 C   0  0  0  1  0  0  0  0  0  0  0  0
    0.9061   -1.3418   -1.7013 H   0  0  0  1  0  0  0  0  0  0  0  0
    0.6521   -2.4944   -0.4124 H   0  0  0  1  0  0  0  0  0  0  0  0
    2.5240   -2.4514   -1.1898 O   0  0  0  1  0  0  0  0  0  0  0  0
    3.1394   -2.4419   -0.4531 H   0  0  0  1  0  0  0  0  0  0  0  0
   -1.1046    0.4544    2.0040 C   0  0  0  1  0  0  0  0  0  0  0  0
   -1.7492    1.2462    1.6839 H   0  0  0  1  0  0  0  0  0  0  0  0
   -1.0033    0.4673    2.8227 C   0  0  0  1  0  0  0  0  0  0  0  0
   -0.0472    0.8946    3.0421 H   0  0  0  1  0  0  0  0  0  0  0  0
   -1.8654    1.4512    3.3786 O   0  0  0  1  0  0  0  0  0  0  0  0
   -2.7059    1.0481    3.6079 H   0  0  0  1  0  0  0  0  0  0  0  0
   -1.0885   -0.2266    3.2604 C   0  0  0  1  0  0  0  0  0  0  0  0
   -1.7223   -0.0700    4.1081 H   0  0  0  1  0  0  0  0  0  0  0  0
    0.1893   -0.3999    3.8747 O   0  0  0  1  0  0  0  0  0  0  0  0
    0.2979    0.2465    4.5761 H   0  0  0  1  0  0  0  0  0  0  0  0
   -1.2750   -0.9335    2.8784 C   0  0  0  1  0  0  0  0  0  0  0  0
   -2.1477   -1.3494    3.3369 H   0  0  0  1  0  0  0  0  0  0  0  0
   -0.3047   -1.8980    3.2359 O   0  0  0  1  0  0  0  0  0  0  0  0
   -0.7400   -2.7264    3.4501 H   0  0  0  1  0  0  0  0  0  0  0  0
   -1.3763   -0.9464    2.0597 C   0  0  0  1  0  0  0  0  0  0  0  0
   -0.7630   -1.7139    1.6358 H   0  0  0  1  0  0  0  0  0  0  0  0
   -1.2911   -0.2524    1.6221 O   0  0  0  1  0  0  0  0  0  0  0  0
   -2.7440   -1.4507    1.6898 C   0  0  0  1  0  0  0  0  0  0  0  0
   -2.8984   -2.3999    2.1590 H   0  0  0  1  0  0  0  0  0  0  0  0
   -2.7917   -1.5657    0.6271 H   0  0  0  1  0  0  0  0  0  0  0  0
   -3.7781   -0.5657    2.0996 O   0  0  0  1  0  0  0  0  0  0  0  0
   -3.7539    0.2275    1.5594 H   0  0  0  1  0  0  0  0  0  0  0  0
  1  2  1  0  0  0  0
  1  3  1  0  0  0  0
  1  4  1  0  0  0  0
  1 18  1  0  0  0  0
  3 24  1  0  0  0  0
  4  5  1  0  0  0  0
  4  6  1  0  0  0  0
  4  8  1  0  0  0  0
  6  7  1  0  0  0  0
  8  9  1  0  0  0  0
  8 10  1  0  0  0  0
  8 12  1  0  0  0  0
 10 11  1  0  0  0  0
 12 13  1  0  0  0  0
 12 14  1  0  0  0  0
 12 16  1  0  0  0  0
 14 15  1  0  0  0  0
 16 17  1  0  0  0  0
 16 18  1  0  0  0  0
 16 19  1  0  0  0  0
 19 20  1  0  0  0  0
 19 21  1  0  0  0  0
 19 22  1  0  0  0  0
 22 23  1  0  0  0  0
 24 25  1  0  0  0  0
 24 26  1  0  0  0  0
 24 40  1  0  0  0  0
 26 27  1  0  0  0  0
 26 28  1  0  0  0  0
 26 30  1  0  0  0  0
 28 29  1  0  0  0  0
 30 31  1  0  0  0  0
 30 32  1  0  0  0  0
 30 34  1  0  0  0  0
 32 33  1  0  0  0  0
 34 35  1  0  0  0  0
 34 36  1  0  0  0  0
 34 38  1  0  0  0  0
 36 37  1  0  0  0  0
 38 39  1  0  0  0  0
 38 40  1  0  0  0  0
 38 41  1  0  0  0  0
 41 42  1  0  0  0  0
 41 43  1  0  0  0  0
 41 44  1  0  0  0  0
 44 45  1  0  0  0  0
M  END
> <ConfClashScore>
0.0589311 

> <ConfOneFourInteractionScore>
-0.96156 

> <ConfScore>
6.73573 

> <ConfScorePBest>
0.0101545 

> <ConfTolerance>
0.84521 

$$$$
L16.****
  PyMOL2.4          3D                             0

 45 46  0  0  0  0  0  0  0  0999 V2000
    0.5991    0.4683    0.1711 C   0  0  0  1  0  0  0  0  0  0  0  0
   -0.1251    0.8440   -0.5212 H   0  0  0  1  0  0  0  0  0  0  0  0
   -0.0722    0.6079    1.4189 O   0  0  0  1  0  0  0  0  0  0  0  0
    1.2534    0.9685    0.2160 C   0  0  0  1  0  0  0  0  0  0  0  0
    1.1673    1.6434    1.0419 H   0  0  0  1  0  0  0  0  0  0  0  0
    1.1798    1.8550   -0.9016 O   0  0  0  1  0  0  0  0  0  0  0  0
    1.7137    2.6339   -0.7285 H   0  0  0  1  0  0  0  0  0  0  0  0
    2.0148    0.6553    0.1658 C   0  0  0  1  0  0  0  0  0  0  0  0
    2.6281    1.2155   -0.5088 H   0  0  0  1  0  0  0  0  0  0  0  0
    2.5838    0.9760    1.4319 O   0  0  0  1  0  0  0  0  0  0  0  0
    2.1852    0.4267    2.1108 H   0  0  0  1  0  0  0  0  0  0  0  0
    2.1218   -0.1572    0.0708 C   0  0  0  1  0  0  0  0  0  0  0  0
    2.8652   -0.5383    0.7393 H   0  0  0  1  0  0  0  0  0  0  0  0
    2.7871   -0.2205   -1.1923 O   0  0  0  1  0  0  0  0  0  0  0  0
    3.7334   -0.1257   -1.0612 H   0  0  0  1  0  0  0  0  0  0  0  0
    1.4675   -0.6574    0.0259 C   0  0  0  1  0  0  0  0  0  0  0  0
    1.5453   -1.2712   -0.8471 H   0  0  0  1  0  0  0  0  0  0  0  0
    0.7061   -0.3442    0.0761 O   0  0  0  1  0  0  0  0  0  0  0  0
    1.5088   -1.7049    1.1043 C   0  0  0  1  0  0  0  0  0  0  0  0
    0.7188   -2.4058    0.9326 H   0  0  0  1  0  0  0  0  0  0  0  0
    1.3641   -1.2285    2.0514 H   0  0  0  1  0  0  0  0  0  0  0  0
    2.7432   -2.4071    1.1313 O   0  0  0  1  0  0  0  0  0  0  0  0
    2.6122   -3.2984    0.7996 H   0  0  0  1  0  0  0  0  0  0  0  0
   -1.4632    0.8269    1.2446 C   0  0  0  1  0  0  0  0  0  0  0  0
   -1.7191    0.0962    0.5060 H   0  0  0  1  0  0  0  0  0  0  0  0
   -1.7638    0.6266    1.9864 C   0  0  0  1  0  0  0  0  0  0  0  0
   -2.3238   -0.2841    1.9417 H   0  0  0  1  0  0  0  0  0  0  0  0
   -0.6113    0.2307    2.7179 O   0  0  0  1  0  0  0  0  0  0  0  0
   -0.6068   -0.7242    2.8167 H   0  0  0  1  0  0  0  0  0  0  0  0
   -2.1548    1.1935    2.4404 C   0  0  0  1  0  0  0  0  0  0  0  0
   -3.0952    0.8124    2.7800 H   0  0  0  1  0  0  0  0  0  0  0  0
   -1.4381    1.3223    3.6691 O   0  0  0  1  0  0  0  0  0  0  0  0
   -2.0572    1.3218    4.4028 H   0  0  0  1  0  0  0  0  0  0  0  0
   -2.2448    1.9609    2.1518 C   0  0  0  1  0  0  0  0  0  0  0  0
   -1.9845    2.6903    2.8901 H   0  0  0  1  0  0  0  0  0  0  0  0
   -3.6607    2.1254    2.0507 O   0  0  0  1  0  0  0  0  0  0  0  0
   -3.9942    2.5329    2.8534 H   0  0  0  1  0  0  0  0  0  0  0  0
   -1.9442    2.1613    1.4101 C   0  0  0  1  0  0  0  0  0  0  0  0
   -2.6730    2.6855    0.8279 H   0  0  0  1  0  0  0  0  0  0  0  0
   -1.5533    1.5944    0.9560 O   0  0  0  1  0  0  0  0  0  0  0  0
   -0.8752    3.2184    1.5696 C   0  0  0  1  0  0  0  0  0  0  0  0
   -0.3783    3.3792    0.6358 H   0  0  0  1  0  0  0  0  0  0  0  0
   -0.1622    2.9088    2.3049 H   0  0  0  1  0  0  0  0  0  0  0  0
   -1.5186    4.4173    1.9909 O   0  0  0  1  0  0  0  0  0  0  0  0
   -2.1568    4.6888    1.3270 H   0  0  0  1  0  0  0  0  0  0  0  0
  1  2  1  0  0  0  0
  1  3  1  0  0  0  0
  1  4  1  0  0  0  0
  1 18  1  0  0  0  0
  3 24  1  0  0  0  0
  4  5  1  0  0  0  0
  4  6  1  0  0  0  0
  4  8  1  0  0  0  0
  6  7  1  0  0  0  0
  8  9  1  0  0  0  0
  8 10  1  0  0  0  0
  8 12  1  0  0  0  0
 10 11  1  0  0  0  0
 12 13  1  0  0  0  0
 12 14  1  0  0  0  0
 12 16  1  0  0  0  0
 14 15  1  0  0  0  0
 16 17  1  0  0  0  0
 16 18  1  0  0  0  0
 16 19  1  0  0  0  0
 19 20  1  0  0  0  0
 19 21  1  0  0  0  0
 19 22  1  0  0  0  0
 22 23  1  0  0  0  0
 24 25  1  0  0  0  0
 24 26  1  0  0  0  0
 24 40  1  0  0  0  0
 26 27  1  0  0  0  0
 26 28  1  0  0  0  0
 26 30  1  0  0  0  0
 28 29  1  0  0  0  0
 30 31  1  0  0  0  0
 30 32  1  0  0  0  0
 30 34  1  0  0  0  0
 32 33  1  0  0  0  0
 34 35  1  0  0  0  0
 34 36  1  0  0  0  0
 34 38  1  0  0  0  0
 36 37  1  0  0  0  0
 38 39  1  0  0  0  0
 38 40  1  0  0  0  0
 38 41  1  0  0  0  0
 41 42  1  0  0  0  0
 41 43  1  0  0  0  0
 41 44  1  0  0  0  0
 44 45  1  0  0  0  0
M  END
> <ConfClashScore>
0.058785 

> <ConfOneFourInteractionScore>
-0.954844 

> <ConfScore>
6.73823 

> <ConfScorePBest>
0.0100515 

> <ConfTolerance>
0.773208 

$$$$
L16.****
  PyMOL2.4          3D                             0

 45 46  0  0  0  0  0  0  0  0999 V2000
    0.6402    0.4376    0.0374 C   0  0  0  1  0  0  0  0  0  0  0  0
   -0.0043    0.8712   -0.6984 H   0  0  0  1  0  0  0  0  0  0  0  0
   -0.1644    0.4566    1.2118 O   0  0  0  1  0  0  0  0  0  0  0  0
    1.2777    0.9295    0.2164 C   0  0  0  1  0  0  0  0  0  0  0  0
    1.0656    1.4735    1.1130 H   0  0  0  1  0  0  0  0  0  0  0  0
    1.2774    1.9761   -0.7453 O   0  0  0  1  0  0  0  0  0  0  0  0
    1.1656    2.8196   -0.3009 H   0  0  0  1  0  0  0  0  0  0  0  0
    2.0394    0.6161    0.2601 C   0  0  0  1  0  0  0  0  0  0  0  0
    2.7337    1.2117   -0.2951 H   0  0  0  1  0  0  0  0  0  0  0  0
    2.4338    0.8791    1.6079 O   0  0  0  1  0  0  0  0  0  0  0  0
    2.6243    1.8145    1.7094 H   0  0  0  1  0  0  0  0  0  0  0  0
    2.1635   -0.1882    0.1250 C   0  0  0  1  0  0  0  0  0  0  0  0
    2.8184   -0.6235    0.8507 H   0  0  0  1  0  0  0  0  0  0  0  0
    2.9406   -0.2500   -1.0724 O   0  0  0  1  0  0  0  0  0  0  0  0
    3.4216   -1.0803   -1.0999 H   0  0  0  1  0  0  0  0  0  0  0  0
    1.5260   -0.6801   -0.0540 C   0  0  0  1  0  0  0  0  0  0  0  0
    1.7390   -1.2553   -0.9308 H   0  0  0  1  0  0  0  0  0  0  0  0
    0.7643   -0.3667   -0.0978 O   0  0  0  1  0  0  0  0  0  0  0  0
    1.4007   -1.7664    0.9751 C   0  0  0  1  0  0  0  0  0  0  0  0
    0.9777   -1.3610    1.8704 H   0  0  0  1  0  0  0  0  0  0  0  0
    2.3693   -2.1683    1.1878 H   0  0  0  1  0  0  0  0  0  0  0  0
    0.5594   -2.7987    0.4809 O   0  0  0  1  0  0  0  0  0  0  0  0
    0.8134   -3.6359    0.8761 H   0  0  0  1  0  0  0  0  0  0  0  0
   -1.5345    0.4553    0.9026 C   0  0  0  1  0  0  0  0  0  0  0  0
   -1.6176    1.2470    0.1876 H   0  0  0  1  0  0  0  0  0  0  0  0
   -1.8844    0.6487    1.6243 C   0  0  0  1  0  0  0  0  0  0  0  0
   -2.4087    1.5763    1.5262 H   0  0  0  1  0  0  0  0  0  0  0  0
   -0.8828    0.9993    2.5633 O   0  0  0  1  0  0  0  0  0  0  0  0
   -1.1789    1.7507    3.0821 H   0  0  0  1  0  0  0  0  0  0  0  0
   -2.3671    0.1016    2.0090 C   0  0  0  1  0  0  0  0  0  0  0  0
   -2.0304   -0.0225    3.0170 H   0  0  0  1  0  0  0  0  0  0  0  0
   -3.6479    0.6994    2.2197 O   0  0  0  1  0  0  0  0  0  0  0  0
   -3.9286    0.5452    3.1247 H   0  0  0  1  0  0  0  0  0  0  0  0
   -2.4996   -0.6391    1.6712 C   0  0  0  1  0  0  0  0  0  0  0  0
   -3.5416   -0.8822    1.6717 H   0  0  0  1  0  0  0  0  0  0  0  0
   -1.9671   -1.6118    2.5741 O   0  0  0  1  0  0  0  0  0  0  0  0
   -2.1904   -2.4927    2.2645 H   0  0  0  1  0  0  0  0  0  0  0  0
   -2.1497   -0.8325    0.9495 C   0  0  0  1  0  0  0  0  0  0  0  0
   -1.6512   -1.7765    1.0229 H   0  0  0  1  0  0  0  0  0  0  0  0
   -1.6670   -0.2854    0.5648 O   0  0  0  1  0  0  0  0  0  0  0  0
   -3.2433   -1.1661   -0.0240 C   0  0  0  1  0  0  0  0  0  0  0  0
   -2.8637   -1.0985   -1.0221 H   0  0  0  1  0  0  0  0  0  0  0  0
   -4.0513   -0.4753    0.0984 H   0  0  0  1  0  0  0  0  0  0  0  0
   -3.7107   -2.4870    0.2153 O   0  0  0  1  0  0  0  0  0  0  0  0
   -4.4674   -2.6661   -0.3477 H   0  0  0  1  0  0  0  0  0  0  0  0
  1  2  1  0  0  0  0
  1  3  1  0  0  0  0
  1  4  1  0  0  0  0
  1 18  1  0  0  0  0
  3 24  1  0  0  0  0
  4  5  1  0  0  0  0
  4  6  1  0  0  0  0
  4  8  1  0  0  0  0
  6  7  1  0  0  0  0
  8  9  1  0  0  0  0
  8 10  1  0  0  0  0
  8 12  1  0  0  0  0
 10 11  1  0  0  0  0
 12 13  1  0  0  0  0
 12 14  1  0  0  0  0
 12 16  1  0  0  0  0
 14 15  1  0  0  0  0
 16 17  1  0  0  0  0
 16 18  1  0  0  0  0
 16 19  1  0  0  0  0
 19 20  1  0  0  0  0
 19 21  1  0  0  0  0
 19 22  1  0  0  0  0
 22 23  1  0  0  0  0
 24 25  1  0  0  0  0
 24 26  1  0  0  0  0
 24 40  1  0  0  0  0
 26 27  1  0  0  0  0
 26 28  1  0  0  0  0
 26 30  1  0  0  0  0
 28 29  1  0  0  0  0
 30 31  1  0  0  0  0
 30 32  1  0  0  0  0
 30 34  1  0  0  0  0
 32 33  1  0  0  0  0
 34 35  1  0  0  0  0
 34 36  1  0  0  0  0
 34 38  1  0  0  0  0
 36 37  1  0  0  0  0
 38 39  1  0  0  0  0
 38 40  1  0  0  0  0
 38 41  1  0  0  0  0
 41 42  1  0  0  0  0
 41 43  1  0  0  0  0
 41 44  1  0  0  0  0
 44 45  1  0  0  0  0
M  END
> <ConfClashScore>
0.0594068 

> <ConfOneFourInteractionScore>
-0.957665 

> <ConfScore>
6.73935 

> <ConfScorePBest>
0.0099485 

> <ConfTolerance>
0.657808 

$$$$
L16.****
  PyMOL2.4          3D                             0

 45 46  0  0  0  0  0  0  0  0999 V2000
    0.6126    0.4838    0.1454 C   0  0  0  1  0  0  0  0  0  0  0  0
   -0.1003    0.8829   -0.5454 H   0  0  0  1  0  0  0  0  0  0  0  0
   -0.0386    0.6755    1.3960 O   0  0  0  1  0  0  0  0  0  0  0  0
    1.2762    0.9705    0.2025 C   0  0  0  1  0  0  0  0  0  0  0  0
    1.1930    1.6608    1.0158 H   0  0  0  1  0  0  0  0  0  0  0  0
    1.2737    1.8366   -0.9352 O   0  0  0  1  0  0  0  0  0  0  0  0
    1.2621    2.7507   -0.6421 H   0  0  0  1  0  0  0  0  0  0  0  0
    2.0317    0.6429    0.1555 C   0  0  0  1  0  0  0  0  0  0  0  0
    2.6629    1.1993   -0.5056 H   0  0  0  1  0  0  0  0  0  0  0  0
    2.6595    0.8502    1.4221 O   0  0  0  1  0  0  0  0  0  0  0  0
    2.2135    0.3251    2.0906 H   0  0  0  1  0  0  0  0  0  0  0  0
    2.1236   -0.1703    0.0515 C   0  0  0  1  0  0  0  0  0  0  0  0
    2.8129   -0.5625    0.7699 H   0  0  0  1  0  0  0  0  0  0  0  0
    2.8820   -0.2638   -1.1552 O   0  0  0  1  0  0  0  0  0  0  0  0
    3.8039   -0.0703   -0.9701 H   0  0  0  1  0  0  0  0  0  0  0  0
    1.4601   -0.6570   -0.0056 C   0  0  0  1  0  0  0  0  0  0  0  0
    1.5393   -1.3102   -0.8493 H   0  0  0  1  0  0  0  0  0  0  0  0
    0.7045   -0.3294    0.0414 O   0  0  0  1  0  0  0  0  0  0  0  0
    1.4905   -1.6398    1.1297 C   0  0  0  1  0  0  0  0  0  0  0  0
    1.2483   -1.1250    2.0360 H   0  0  0  1  0  0  0  0  0  0  0  0
    2.4766   -2.0485    1.2037 H   0  0  0  1  0  0  0  0  0  0  0  0
    0.5681   -2.7048    0.9501 O   0  0  0  1  0  0  0  0  0  0  0  0
   -0.0838   -2.6864    1.6546 H   0  0  0  1  0  0  0  0  0  0  0  0
   -1.0536    1.6460    1.3627 C   0  0  0  1  0  0  0  0  0  0  0  0
   -0.5149    2.5265    1.0808 H   0  0  0  1  0  0  0  0  0  0  0  0
   -1.2968    1.6867    2.1500 C   0  0  0  1  0  0  0  0  0  0  0  0
   -1.0251    2.6351    2.5642 H   0  0  0  1  0  0  0  0  0  0  0  0
   -0.4710    0.8071    2.9013 O   0  0  0  1  0  0  0  0  0  0  0  0
   -0.2528    1.2134    3.7433 H   0  0  0  1  0  0  0  0  0  0  0  0
   -2.0763    1.5072    2.3512 C   0  0  0  1  0  0  0  0  0  0  0  0
   -2.1124    0.8285    3.1776 H   0  0  0  1  0  0  0  0  0  0  0  0
   -2.6528    2.6874    2.9125 O   0  0  0  1  0  0  0  0  0  0  0  0
   -2.7689    3.3460    2.2238 H   0  0  0  1  0  0  0  0  0  0  0  0
   -2.6123    1.2870    1.7642 C   0  0  0  1  0  0  0  0  0  0  0  0
   -3.5123    1.8598    1.8473 H   0  0  0  1  0  0  0  0  0  0  0  0
   -3.0531   -0.0042    2.1890 O   0  0  0  1  0  0  0  0  0  0  0  0
   -3.9798    0.0387    2.4358 H   0  0  0  1  0  0  0  0  0  0  0  0
   -2.3691    1.2464    0.9769 C   0  0  0  1  0  0  0  0  0  0  0  0
   -2.7015    0.3447    0.5064 H   0  0  0  1  0  0  0  0  0  0  0  0
   -1.5896    1.4258    0.7757 O   0  0  0  1  0  0  0  0  0  0  0  0
   -3.1238    2.2911    0.2017 C   0  0  0  1  0  0  0  0  0  0  0  0
   -2.8103    3.2682    0.5048 H   0  0  0  1  0  0  0  0  0  0  0  0
   -4.1747    2.1842    0.3721 H   0  0  0  1  0  0  0  0  0  0  0  0
   -2.8330    2.0936   -1.1757 O   0  0  0  1  0  0  0  0  0  0  0  0
   -3.1864    2.8259   -1.6860 H   0  0  0  1  0  0  0  0  0  0  0  0
  1  2  1  0  0  0  0
  1  3  1  0  0  0  0
  1  4  1  0  0  0  0
  1 18  1  0  0  0  0
  3 24  1  0  0  0  0
  4  5  1  0  0  0  0
  4  6  1  0  0  0  0
  4  8  1  0  0  0  0
  6  7  1  0  0  0  0
  8  9  1  0  0  0  0
  8 10  1  0  0  0  0
  8 12  1  0  0  0  0
 10 11  1  0  0  0  0
 12 13  1  0  0  0  0
 12 14  1  0  0  0  0
 12 16  1  0  0  0  0
 14 15  1  0  0  0  0
 16 17  1  0  0  0  0
 16 18  1  0  0  0  0
 16 19  1  0  0  0  0
 19 20  1  0  0  0  0
 19 21  1  0  0  0  0
 19 22  1  0  0  0  0
 22 23  1  0  0  0  0
 24 25  1  0  0  0  0
 24 26  1  0  0  0  0
 24 40  1  0  0  0  0
 26 27  1  0  0  0  0
 26 28  1  0  0  0  0
 26 30  1  0  0  0  0
 28 29  1  0  0  0  0
 30 31  1  0  0  0  0
 30 32  1  0  0  0  0
 30 34  1  0  0  0  0
 32 33  1  0  0  0  0
 34 35  1  0  0  0  0
 34 36  1  0  0  0  0
 34 38  1  0  0  0  0
 36 37  1  0  0  0  0
 38 39  1  0  0  0  0
 38 40  1  0  0  0  0
 38 41  1  0  0  0  0
 41 42  1  0  0  0  0
 41 43  1  0  0  0  0
 41 44  1  0  0  0  0
 44 45  1  0  0  0  0
M  END
> <ConfClashScore>
0.0601052 

> <ConfOneFourInteractionScore>
-0.964077 

> <ConfScore>
6.74468 

> <ConfScorePBest>
0.0098455 

> <ConfTolerance>
0.79921 

$$$$
L16.****
  PyMOL2.4          3D                             0

 45 46  0  0  0  0  0  0  0  0999 V2000
    0.6297    0.6247   -0.1503 C   0  0  0  1  0  0  0  0  0  0  0  0
   -0.2530    0.8399    0.4149 H   0  0  0  1  0  0  0  0  0  0  0  0
    0.3578    1.2934   -1.3766 O   0  0  0  1  0  0  0  0  0  0  0  0
    1.2731    1.0375    0.1594 C   0  0  0  1  0  0  0  0  0  0  0  0
    1.4559    1.9449   -0.3775 H   0  0  0  1  0  0  0  0  0  0  0  0
    0.7854    1.5145    1.4063 O   0  0  0  1  0  0  0  0  0  0  0  0
    0.7622    0.7925    2.0386 H   0  0  0  1  0  0  0  0  0  0  0  0
    1.9744    0.6382    0.3300 C   0  0  0  1  0  0  0  0  0  0  0  0
    2.3284    0.8857    1.3089 H   0  0  0  1  0  0  0  0  0  0  0  0
    3.0180    1.1510   -0.5003 O   0  0  0  1  0  0  0  0  0  0  0  0
    3.3336    1.9833   -0.1409 H   0  0  0  1  0  0  0  0  0  0  0  0
    2.0321   -0.1730    0.1910 C   0  0  0  1  0  0  0  0  0  0  0  0
    2.4082   -0.6715    1.0600 H   0  0  0  1  0  0  0  0  0  0  0  0
    3.1189   -0.3332   -0.7226 O   0  0  0  1  0  0  0  0  0  0  0  0
    3.8971   -0.6308   -0.2458 H   0  0  0  1  0  0  0  0  0  0  0  0
    1.3887   -0.5858   -0.1187 C   0  0  0  1  0  0  0  0  0  0  0  0
    1.7006   -1.1445   -0.9763 H   0  0  0  1  0  0  0  0  0  0  0  0
    0.6874   -0.1864   -0.2893 O   0  0  0  1  0  0  0  0  0  0  0  0
    0.9645   -1.7055    0.8011 C   0  0  0  1  0  0  0  0  0  0  0  0
    0.4538   -1.2962    1.6476 H   0  0  0  1  0  0  0  0  0  0  0  0
    1.8296   -2.2419    1.1308 H   0  0  0  1  0  0  0  0  0  0  0  0
    0.0959   -2.5904    0.1083 O   0  0  0  1  0  0  0  0  0  0  0  0
   -0.8152   -2.3272    0.2574 H   0  0  0  1  0  0  0  0  0  0  0  0
   -0.8065    0.8272   -2.0350 C   0  0  0  1  0  0  0  0  0  0  0  0
   -1.5379    0.9091   -1.2582 H   0  0  0  1  0  0  0  0  0  0  0  0
   -0.9625    1.3785   -2.6286 C   0  0  0  1  0  0  0  0  0  0  0  0
   -1.7888    2.0077   -2.3714 H   0  0  0  1  0  0  0  0  0  0  0  0
    0.1308    2.2900   -2.6023 O   0  0  0  1  0  0  0  0  0  0  0  0
   -0.0709    3.0151   -2.0063 H   0  0  0  1  0  0  0  0  0  0  0  0
   -1.0002    1.1374   -3.4165 C   0  0  0  1  0  0  0  0  0  0  0  0
   -0.4142    1.7773   -4.0426 H   0  0  0  1  0  0  0  0  0  0  0  0
   -2.3201    1.3655   -3.9127 O   0  0  0  1  0  0  0  0  0  0  0  0
   -2.9436    1.3519   -3.1829 H   0  0  0  1  0  0  0  0  0  0  0  0
   -0.8819    0.3444   -3.6101 C   0  0  0  1  0  0  0  0  0  0  0  0
   -1.7089    0.0014   -4.1960 H   0  0  0  1  0  0  0  0  0  0  0  0
    0.1679    0.2967   -4.5731 O   0  0  0  1  0  0  0  0  0  0  0  0
   -0.1995    0.4054   -5.4534 H   0  0  0  1  0  0  0  0  0  0  0  0
   -0.7260   -0.2069   -3.0165 C   0  0  0  1  0  0  0  0  0  0  0  0
    0.1559   -0.7599   -3.2643 H   0  0  0  1  0  0  0  0  0  0  0  0
   -0.6882    0.0341   -2.2286 O   0  0  0  1  0  0  0  0  0  0  0  0
   -1.7405   -1.3164   -2.9743 C   0  0  0  1  0  0  0  0  0  0  0  0
   -1.5419   -1.9310   -2.1213 H   0  0  0  1  0  0  0  0  0  0  0  0
   -1.6469   -1.9012   -3.8655 H   0  0  0  1  0  0  0  0  0  0  0  0
   -3.0639   -0.8336   -2.8864 O   0  0  0  1  0  0  0  0  0  0  0  0
   -3.2912   -0.3723   -3.6971 H   0  0  0  1  0  0  0  0  0  0  0  0
  1  2  1  0  0  0  0
  1  3  1  0  0  0  0
  1  4  1  0  0  0  0
  1 18  1  0  0  0  0
  3 24  1  0  0  0  0
  4  5  1  0  0  0  0
  4  6  1  0  0  0  0
  4  8  1  0  0  0  0
  6  7  1  0  0  0  0
  8  9  1  0  0  0  0
  8 10  1  0  0  0  0
  8 12  1  0  0  0  0
 10 11  1  0  0  0  0
 12 13  1  0  0  0  0
 12 14  1  0  0  0  0
 12 16  1  0  0  0  0
 14 15  1  0  0  0  0
 16 17  1  0  0  0  0
 16 18  1  0  0  0  0
 16 19  1  0  0  0  0
 19 20  1  0  0  0  0
 19 21  1  0  0  0  0
 19 22  1  0  0  0  0
 22 23  1  0  0  0  0
 24 25  1  0  0  0  0
 24 26  1  0  0  0  0
 24 40  1  0  0  0  0
 26 27  1  0  0  0  0
 26 28  1  0  0  0  0
 26 30  1  0  0  0  0
 28 29  1  0  0  0  0
 30 31  1  0  0  0  0
 30 32  1  0  0  0  0
 30 34  1  0  0  0  0
 32 33  1  0  0  0  0
 34 35  1  0  0  0  0
 34 36  1  0  0  0  0
 34 38  1  0  0  0  0
 36 37  1  0  0  0  0
 38 39  1  0  0  0  0
 38 40  1  0  0  0  0
 38 41  1  0  0  0  0
 41 42  1  0  0  0  0
 41 43  1  0  0  0  0
 41 44  1  0  0  0  0
 44 45  1  0  0  0  0
M  END
> <ConfClashScore>
0.0608101 

> <ConfOneFourInteractionScore>
-0.969954 

> <ConfScore>
6.74689 

> <ConfScorePBest>
0.0097425 

> <ConfTolerance>
0.74342 

$$$$
L16.****
  PyMOL2.4          3D                             0

 45 46  0  0  0  0  0  0  0  0999 V2000
    0.7234    0.5767    0.1558 C   0  0  0  1  0  0  0  0  0  0  0  0
    0.1014    1.1032   -0.5376 H   0  0  0  1  0  0  0  0  0  0  0  0
   -0.0499    0.5960    1.3501 O   0  0  0  1  0  0  0  0  0  0  0  0
    1.4039    1.0032    0.3441 C   0  0  0  1  0  0  0  0  0  0  0  0
    1.2616    1.5788    1.2347 H   0  0  0  1  0  0  0  0  0  0  0  0
    1.4570    2.0188   -0.6589 O   0  0  0  1  0  0  0  0  0  0  0  0
    1.8043    1.6473   -1.4732 H   0  0  0  1  0  0  0  0  0  0  0  0
    2.1373    0.6257    0.3501 C   0  0  0  1  0  0  0  0  0  0  0  0
    2.8529    1.1864   -0.2142 H   0  0  0  1  0  0  0  0  0  0  0  0
    2.5904    0.8410    1.6874 O   0  0  0  1  0  0  0  0  0  0  0  0
    1.8924    0.6075    2.3037 H   0  0  0  1  0  0  0  0  0  0  0  0
    2.1901   -0.1773    0.1681 C   0  0  0  1  0  0  0  0  0  0  0  0
    2.8032   -0.7020    0.8707 H   0  0  0  1  0  0  0  0  0  0  0  0
    3.0131   -0.1606   -1.0011 O   0  0  0  1  0  0  0  0  0  0  0  0
    2.5268    0.2321   -1.7298 H   0  0  0  1  0  0  0  0  0  0  0  0
    1.5096   -0.6037   -0.0202 C   0  0  0  1  0  0  0  0  0  0  0  0
    1.6534   -1.1493   -0.9293 H   0  0  0  1  0  0  0  0  0  0  0  0
    0.7762   -0.2262   -0.0262 O   0  0  0  1  0  0  0  0  0  0  0  0
    1.2160   -1.7225    0.9379 C   0  0  0  1  0  0  0  0  0  0  0  0
    0.8861   -1.3241    1.8746 H   0  0  0  1  0  0  0  0  0  0  0  0
    2.0952   -2.3128    1.0906 H   0  0  0  1  0  0  0  0  0  0  0  0
    0.1909   -2.5193    0.3619 O   0  0  0  1  0  0  0  0  0  0  0  0
   -0.6212   -2.0099    0.3121 H   0  0  0  1  0  0  0  0  0  0  0  0
   -1.4201    0.3910    1.1390 C   0  0  0  1  0  0  0  0  0  0  0  0
   -1.5185   -0.6632    1.2933 H   0  0  0  1  0  0  0  0  0  0  0  0
   -1.7705    0.8155    1.7536 C   0  0  0  1  0  0  0  0  0  0  0  0
   -1.0435    1.0993    2.4855 H   0  0  0  1  0  0  0  0  0  0  0  0
   -2.5258   -0.1646    2.4528 O   0  0  0  1  0  0  0  0  0  0  0  0
   -3.3666   -0.2980    2.0090 H   0  0  0  1  0  0  0  0  0  0  0  0
   -2.2793    1.4425    1.5848 C   0  0  0  1  0  0  0  0  0  0  0  0
   -3.1771    1.3863    2.1642 H   0  0  0  1  0  0  0  0  0  0  0  0
   -1.6470    2.6066    2.1187 O   0  0  0  1  0  0  0  0  0  0  0  0
   -1.6663    2.5705    3.0778 H   0  0  0  1  0  0  0  0  0  0  0  0
   -2.4372    1.6444    0.8008 C   0  0  0  1  0  0  0  0  0  0  0  0
   -3.4801    1.8128    0.6305 H   0  0  0  1  0  0  0  0  0  0  0  0
   -1.8818    2.9516    0.6435 O   0  0  0  1  0  0  0  0  0  0  0  0
   -2.5661    3.5573    0.3493 H   0  0  0  1  0  0  0  0  0  0  0  0
   -2.0868    1.2199    0.1863 C   0  0  0  1  0  0  0  0  0  0  0  0
   -1.5718    1.9100   -0.4488 H   0  0  0  1  0  0  0  0  0  0  0  0
   -1.5780    0.5930    0.3550 O   0  0  0  1  0  0  0  0  0  0  0  0
   -3.0608    0.6386   -0.8013 C   0  0  0  1  0  0  0  0  0  0  0  0
   -3.7328    1.4098   -1.1153 H   0  0  0  1  0  0  0  0  0  0  0  0
   -3.6125   -0.1421   -0.3206 H   0  0  0  1  0  0  0  0  0  0  0  0
   -2.4153    0.1013   -1.9482 O   0  0  0  1  0  0  0  0  0  0  0  0
   -2.8910    0.3683   -2.7382 H   0  0  0  1  0  0  0  0  0  0  0  0
  1  2  1  0  0  0  0
  1  3  1  0  0  0  0
  1  4  1  0  0  0  0
  1 18  1  0  0  0  0
  3 24  1  0  0  0  0
  4  5  1  0  0  0  0
  4  6  1  0  0  0  0
  4  8  1  0  0  0  0
  6  7  1  0  0  0  0
  8  9  1  0  0  0  0
  8 10  1  0  0  0  0
  8 12  1  0  0  0  0
 10 11  1  0  0  0  0
 12 13  1  0  0  0  0
 12 14  1  0  0  0  0
 12 16  1  0  0  0  0
 14 15  1  0  0  0  0
 16 17  1  0  0  0  0
 16 18  1  0  0  0  0
 16 19  1  0  0  0  0
 19 20  1  0  0  0  0
 19 21  1  0  0  0  0
 19 22  1  0  0  0  0
 22 23  1  0  0  0  0
 24 25  1  0  0  0  0
 24 26  1  0  0  0  0
 24 40  1  0  0  0  0
 26 27  1  0  0  0  0
 26 28  1  0  0  0  0
 26 30  1  0  0  0  0
 28 29  1  0  0  0  0
 30 31  1  0  0  0  0
 30 32  1  0  0  0  0
 30 34  1  0  0  0  0
 32 33  1  0  0  0  0
 34 35  1  0  0  0  0
 34 36  1  0  0  0  0
 34 38  1  0  0  0  0
 36 37  1  0  0  0  0
 38 39  1  0  0  0  0
 38 40  1  0  0  0  0
 38 41  1  0  0  0  0
 41 42  1  0  0  0  0
 41 43  1  0  0  0  0
 41 44  1  0  0  0  0
 44 45  1  0  0  0  0
M  END
> <ConfClashScore>
0.0598037 

> <ConfOneFourInteractionScore>
-0.970257 

> <ConfScore>
6.74729 

> <ConfScorePBest>
0.0096395 

> <ConfTolerance>
0.809806 

$$$$
L16.****
  PyMOL2.4          3D                             0

 45 46  0  0  0  0  0  0  0  0999 V2000
    0.5832    0.3469    0.4759 C   0  0  0  1  0  0  0  0  0  0  0  0
   -0.3804    0.7191    0.1965 H   0  0  0  1  0  0  0  0  0  0  0  0
    0.4921    0.2381    1.8917 O   0  0  0  1  0  0  0  0  0  0  0  0
    1.1869    0.8970    0.3603 C   0  0  0  1  0  0  0  0  0  0  0  0
    1.3709    1.4198    1.2756 H   0  0  0  1  0  0  0  0  0  0  0  0
    0.6516    1.9376   -0.4464 O   0  0  0  1  0  0  0  0  0  0  0  0
    1.3550    2.5386   -0.7025 H   0  0  0  1  0  0  0  0  0  0  0  0
    1.9049    0.6568    0.0331 C   0  0  0  1  0  0  0  0  0  0  0  0
    2.1757    1.3001   -0.7780 H   0  0  0  1  0  0  0  0  0  0  0  0
    2.9265    0.9544    0.9866 O   0  0  0  1  0  0  0  0  0  0  0  0
    3.2821    1.8290    0.8128 H   0  0  0  1  0  0  0  0  0  0  0  0
    2.0192   -0.1324   -0.1783 C   0  0  0  1  0  0  0  0  0  0  0  0
    2.3989   -0.1998   -1.1764 H   0  0  0  1  0  0  0  0  0  0  0  0
    3.1043   -0.6711    0.5791 O   0  0  0  1  0  0  0  0  0  0  0  0
    3.9258   -0.5397    0.1001 H   0  0  0  1  0  0  0  0  0  0  0  0
    1.4155   -0.6824   -0.0628 C   0  0  0  1  0  0  0  0  0  0  0  0
    1.7966   -1.5134    0.4933 H   0  0  0  1  0  0  0  0  0  0  0  0
    0.6974   -0.4423    0.2645 O   0  0  0  1  0  0  0  0  0  0  0  0
    0.9567   -1.3813   -1.3130 C   0  0  0  1  0  0  0  0  0  0  0  0
    1.8120   -1.5993   -1.9179 H   0  0  0  1  0  0  0  0  0  0  0  0
    0.2975   -0.7301   -1.8480 H   0  0  0  1  0  0  0  0  0  0  0  0
    0.2729   -2.5950   -1.0361 O   0  0  0  1  0  0  0  0  0  0  0  0
   -0.3979   -2.7450   -1.7063 H   0  0  0  1  0  0  0  0  0  0  0  0
   -0.5289   -0.5886    2.3891 C   0  0  0  1  0  0  0  0  0  0  0  0
   -1.3959   -0.1939    1.9019 H   0  0  0  1  0  0  0  0  0  0  0  0
   -0.5504   -0.4376    3.1999 C   0  0  0  1  0  0  0  0  0  0  0  0
   -0.0073    0.4506    3.4473 H   0  0  0  1  0  0  0  0  0  0  0  0
   -1.8911   -0.0605    3.4837 O   0  0  0  1  0  0  0  0  0  0  0  0
   -1.8984    0.7979    3.9135 H   0  0  0  1  0  0  0  0  0  0  0  0
   -0.3975   -1.0444    3.7372 C   0  0  0  1  0  0  0  0  0  0  0  0
    0.2818   -0.7339    4.5034 H   0  0  0  1  0  0  0  0  0  0  0  0
   -1.6388   -1.1169    4.4401 O   0  0  0  1  0  0  0  0  0  0  0  0
   -1.4766   -1.3704    5.3516 H   0  0  0  1  0  0  0  0  0  0  0  0
   -0.2230   -1.8024    3.4628 C   0  0  0  1  0  0  0  0  0  0  0  0
   -0.7856   -2.5476    3.9853 H   0  0  0  1  0  0  0  0  0  0  0  0
    1.1049   -2.0406    3.9342 O   0  0  0  1  0  0  0  0  0  0  0  0
    1.7276   -1.5350    3.4068 H   0  0  0  1  0  0  0  0  0  0  0  0
   -0.2014   -1.9534    2.6520 C   0  0  0  1  0  0  0  0  0  0  0  0
    0.7096   -2.4522    2.3946 H   0  0  0  1  0  0  0  0  0  0  0  0
   -0.3544   -1.3466    2.1147 O   0  0  0  1  0  0  0  0  0  0  0  0
   -1.2119   -3.0041    2.2912 C   0  0  0  1  0  0  0  0  0  0  0  0
   -2.1938   -2.6735    2.5585 H   0  0  0  1  0  0  0  0  0  0  0  0
   -0.9898   -3.9161    2.8048 H   0  0  0  1  0  0  0  0  0  0  0  0
   -1.1338   -3.2069    0.8864 O   0  0  0  1  0  0  0  0  0  0  0  0
   -0.3880   -3.7773    0.6860 H   0  0  0  1  0  0  0  0  0  0  0  0
  1  2  1  0  0  0  0
  1  3  1  0  0  0  0
  1  4  1  0  0  0  0
  1 18  1  0  0  0  0
  3 24  1  0  0  0  0
  4  5  1  0  0  0  0
  4  6  1  0  0  0  0
  4  8  1  0  0  0  0
  6  7  1  0  0  0  0
  8  9  1  0  0  0  0
  8 10  1  0  0  0  0
  8 12  1  0  0  0  0
 10 11  1  0  0  0  0
 12 13  1  0  0  0  0
 12 14  1  0  0  0  0
 12 16  1  0  0  0  0
 14 15  1  0  0  0  0
 16 17  1  0  0  0  0
 16 18  1  0  0  0  0
 16 19  1  0  0  0  0
 19 20  1  0  0  0  0
 19 21  1  0  0  0  0
 19 22  1  0  0  0  0
 22 23  1  0  0  0  0
 24 25  1  0  0  0  0
 24 26  1  0  0  0  0
 24 40  1  0  0  0  0
 26 27  1  0  0  0  0
 26 28  1  0  0  0  0
 26 30  1  0  0  0  0
 28 29  1  0  0  0  0
 30 31  1  0  0  0  0
 30 32  1  0  0  0  0
 30 34  1  0  0  0  0
 32 33  1  0  0  0  0
 34 35  1  0  0  0  0
 34 36  1  0  0  0  0
 34 38  1  0  0  0  0
 36 37  1  0  0  0  0
 38 39  1  0  0  0  0
 38 40  1  0  0  0  0
 38 41  1  0  0  0  0
 41 42  1  0  0  0  0
 41 43  1  0  0  0  0
 41 44  1  0  0  0  0
 44 45  1  0  0  0  0
M  END
> <ConfClashScore>
0.0611815 

> <ConfOneFourInteractionScore>
-0.970689 

> <ConfScore>
6.75173 

> <ConfScorePBest>
0.0095365 

> <ConfTolerance>
0.799074 

$$$$
L16.****
  PyMOL2.4          3D                             0

 45 46  0  0  0  0  0  0  0  0999 V2000
    0.6211    0.4204    0.3577 C   0  0  0  1  0  0  0  0  0  0  0  0
   -0.2784    0.8032   -0.0774 H   0  0  0  1  0  0  0  0  0  0  0  0
    0.3294    0.4690    1.7581 O   0  0  0  1  0  0  0  0  0  0  0  0
    1.2426    0.9587    0.2920 C   0  0  0  1  0  0  0  0  0  0  0  0
    1.3251    1.5715    1.1653 H   0  0  0  1  0  0  0  0  0  0  0  0
    0.7874    1.8909   -0.6899 O   0  0  0  1  0  0  0  0  0  0  0  0
    0.1784    2.5121   -0.2839 H   0  0  0  1  0  0  0  0  0  0  0  0
    1.9821    0.7032    0.0307 C   0  0  0  1  0  0  0  0  0  0  0  0
    2.4022    1.3645   -0.6982 H   0  0  0  1  0  0  0  0  0  0  0  0
    2.8474    0.8876    1.1526 O   0  0  0  1  0  0  0  0  0  0  0  0
    3.6729    1.2802    0.8594 H   0  0  0  1  0  0  0  0  0  0  0  0
    2.0999   -0.0896   -0.1648 C   0  0  0  1  0  0  0  0  0  0  0  0
    2.6160   -0.1940   -1.0963 H   0  0  0  1  0  0  0  0  0  0  0  0
    3.0452   -0.6167    0.7678 O   0  0  0  1  0  0  0  0  0  0  0  0
    3.8277   -0.9137    0.2977 H   0  0  0  1  0  0  0  0  0  0  0  0
    1.4783   -0.6279   -0.0992 C   0  0  0  1  0  0  0  0  0  0  0  0
    1.7929   -1.4695    0.4818 H   0  0  0  1  0  0  0  0  0  0  0  0
    0.7389   -0.3724    0.1622 O   0  0  0  1  0  0  0  0  0  0  0  0
    1.1539   -1.3025   -1.4036 C   0  0  0  1  0  0  0  0  0  0  0  0
    2.0690   -1.5293   -1.9097 H   0  0  0  1  0  0  0  0  0  0  0  0
    0.5719   -0.6324   -2.0013 H   0  0  0  1  0  0  0  0  0  0  0  0
    0.4218   -2.5063   -1.2243 O   0  0  0  1  0  0  0  0  0  0  0  0
   -0.4926   -2.3665   -1.4813 H   0  0  0  1  0  0  0  0  0  0  0  0
   -0.8887   -0.1759    2.0076 C   0  0  0  1  0  0  0  0  0  0  0  0
   -0.9102   -0.9535    1.2729 H   0  0  0  1  0  0  0  0  0  0  0  0
   -0.7760   -0.4601    2.7739 C   0  0  0  1  0  0  0  0  0  0  0  0
   -0.8627   -1.5265    2.7723 H   0  0  0  1  0  0  0  0  0  0  0  0
    0.6063   -0.2990    3.0402 O   0  0  0  1  0  0  0  0  0  0  0  0
    1.0850   -1.0699    2.7270 H   0  0  0  1  0  0  0  0  0  0  0  0
   -1.2180   -0.1512    3.3981 C   0  0  0  1  0  0  0  0  0  0  0  0
   -1.6227   -0.9269    4.0140 H   0  0  0  1  0  0  0  0  0  0  0  0
   -0.2720    0.4665    4.2719 O   0  0  0  1  0  0  0  0  0  0  0  0
   -0.7094    0.7253    5.0863 H   0  0  0  1  0  0  0  0  0  0  0  0
   -1.7728    0.4422    3.2550 C   0  0  0  1  0  0  0  0  0  0  0  0
   -1.6652    1.2466    3.9524 H   0  0  0  1  0  0  0  0  0  0  0  0
   -3.0521   -0.0880    3.6080 O   0  0  0  1  0  0  0  0  0  0  0  0
   -3.4992    0.5213    4.2000 H   0  0  0  1  0  0  0  0  0  0  0  0
   -1.8855    0.7263    2.4887 C   0  0  0  1  0  0  0  0  0  0  0  0
   -2.9267    0.7189    2.2423 H   0  0  0  1  0  0  0  0  0  0  0  0
   -1.4435    0.4175    1.8646 O   0  0  0  1  0  0  0  0  0  0  0  0
   -1.6076    2.2020    2.4934 C   0  0  0  1  0  0  0  0  0  0  0  0
   -1.4215    2.5320    1.4927 H   0  0  0  1  0  0  0  0  0  0  0  0
   -0.7491    2.4003    3.1004 H   0  0  0  1  0  0  0  0  0  0  0  0
   -2.7294    2.8987    3.0196 O   0  0  0  1  0  0  0  0  0  0  0  0
   -2.7720    3.7763    2.6328 H   0  0  0  1  0  0  0  0  0  0  0  0
  1  2  1  0  0  0  0
  1  3  1  0  0  0  0
  1  4  1  0  0  0  0
  1 18  1  0  0  0  0
  3 24  1  0  0  0  0
  4  5  1  0  0  0  0
  4  6  1  0  0  0  0
  4  8  1  0  0  0  0
  6  7  1  0  0  0  0
  8  9  1  0  0  0  0
  8 10  1  0  0  0  0
  8 12  1  0  0  0  0
 10 11  1  0  0  0  0
 12 13  1  0  0  0  0
 12 14  1  0  0  0  0
 12 16  1  0  0  0  0
 14 15  1  0  0  0  0
 16 17  1  0  0  0  0
 16 18  1  0  0  0  0
 16 19  1  0  0  0  0
 19 20  1  0  0  0  0
 19 21  1  0  0  0  0
 19 22  1  0  0  0  0
 22 23  1  0  0  0  0
 24 25  1  0  0  0  0
 24 26  1  0  0  0  0
 24 40  1  0  0  0  0
 26 27  1  0  0  0  0
 26 28  1  0  0  0  0
 26 30  1  0  0  0  0
 28 29  1  0  0  0  0
 30 31  1  0  0  0  0
 30 32  1  0  0  0  0
 30 34  1  0  0  0  0
 32 33  1  0  0  0  0
 34 35  1  0  0  0  0
 34 36  1  0  0  0  0
 34 38  1  0  0  0  0
 36 37  1  0  0  0  0
 38 39  1  0  0  0  0
 38 40  1  0  0  0  0
 38 41  1  0  0  0  0
 41 42  1  0  0  0  0
 41 43  1  0  0  0  0
 41 44  1  0  0  0  0
 44 45  1  0  0  0  0
M  END
> <ConfClashScore>
0.059255 

> <ConfOneFourInteractionScore>
-0.957665 

> <ConfScore>
6.7612 

> <ConfScorePBest>
0.00943349 

> <ConfTolerance>
0.744775 

$$$$
L16.****
  PyMOL2.4          3D                             0

 45 46  0  0  0  0  0  0  0  0999 V2000
    0.6602    0.5027    0.3063 C   0  0  0  1  0  0  0  0  0  0  0  0
   -0.0004    0.7044    1.1235 H   0  0  0  1  0  0  0  0  0  0  0  0
   -0.0923    0.9403   -0.8204 O   0  0  0  1  0  0  0  0  0  0  0  0
    1.3247    0.9911    0.3198 C   0  0  0  1  0  0  0  0  0  0  0  0
    1.3142    1.6341    1.1750 H   0  0  0  1  0  0  0  0  0  0  0  0
    1.1807    1.9268   -0.7581 O   0  0  0  1  0  0  0  0  0  0  0  0
    0.6559    2.6752   -0.4648 H   0  0  0  1  0  0  0  0  0  0  0  0
    2.0743    0.6690    0.1986 C   0  0  0  1  0  0  0  0  0  0  0  0
    2.6389    1.2444   -0.5051 H   0  0  0  1  0  0  0  0  0  0  0  0
    2.7885    0.8907    1.4121 O   0  0  0  1  0  0  0  0  0  0  0  0
    2.4923    0.2650    2.0772 H   0  0  0  1  0  0  0  0  0  0  0  0
    2.1593   -0.1405    0.0640 C   0  0  0  1  0  0  0  0  0  0  0  0
    2.9446   -0.5591    0.6581 H   0  0  0  1  0  0  0  0  0  0  0  0
    2.6818   -0.2620   -1.2603 O   0  0  0  1  0  0  0  0  0  0  0  0
    3.6365   -0.3543   -1.2208 H   0  0  0  1  0  0  0  0  0  0  0  0
    1.4947   -0.6289    0.0505 C   0  0  0  1  0  0  0  0  0  0  0  0
    1.4985   -1.2329   -0.8327 H   0  0  0  1  0  0  0  0  0  0  0  0
    0.7451   -0.3068    0.1717 O   0  0  0  1  0  0  0  0  0  0  0  0
    1.6655   -1.6841    1.1175 C   0  0  0  1  0  0  0  0  0  0  0  0
    1.6939   -1.2042    2.0735 H   0  0  0  1  0  0  0  0  0  0  0  0
    2.5889   -2.1974    0.9480 H   0  0  0  1  0  0  0  0  0  0  0  0
    0.6092   -2.6336    1.1154 O   0  0  0  1  0  0  0  0  0  0  0  0
   -0.1823   -2.2333    1.4827 H   0  0  0  1  0  0  0  0  0  0  0  0
   -1.3693    0.3888   -0.8316 C   0  0  0  1  0  0  0  0  0  0  0  0
   -1.7622    0.7029    0.1128 H   0  0  0  1  0  0  0  0  0  0  0  0
   -1.7856    0.7324   -1.4556 C   0  0  0  1  0  0  0  0  0  0  0  0
   -1.2797    1.6038   -1.8155 H   0  0  0  1  0  0  0  0  0  0  0  0
   -2.9713    1.3009   -0.8749 O   0  0  0  1  0  0  0  0  0  0  0  0
   -3.0201    2.2340   -1.0949 H   0  0  0  1  0  0  0  0  0  0  0  0
   -2.0483    0.2660   -2.0831 C   0  0  0  1  0  0  0  0  0  0  0  0
   -1.7530    0.7011   -3.0150 H   0  0  0  1  0  0  0  0  0  0  0  0
   -3.4730    0.3503   -2.1687 O   0  0  0  1  0  0  0  0  0  0  0  0
   -3.7657   -0.0125   -3.0079 H   0  0  0  1  0  0  0  0  0  0  0  0
   -1.8943   -0.5443   -2.0860 C   0  0  0  1  0  0  0  0  0  0  0  0
   -2.7940   -1.0914   -2.2765 H   0  0  0  1  0  0  0  0  0  0  0  0
   -1.1336   -0.8277   -3.2621 O   0  0  0  1  0  0  0  0  0  0  0  0
   -1.1592   -1.7706   -3.4408 H   0  0  0  1  0  0  0  0  0  0  0  0
   -1.4781   -0.8879   -1.4621 C   0  0  0  1  0  0  0  0  0  0  0  0
   -0.7122   -1.5477   -1.8129 H   0  0  0  1  0  0  0  0  0  0  0  0
   -1.2153   -0.4216   -0.8345 O   0  0  0  1  0  0  0  0  0  0  0  0
   -2.4072   -1.8464   -0.7566 C   0  0  0  1  0  0  0  0  0  0  0  0
   -1.9143   -2.2523    0.1021 H   0  0  0  1  0  0  0  0  0  0  0  0
   -2.6734   -2.6395   -1.4237 H   0  0  0  1  0  0  0  0  0  0  0  0
   -3.5821   -1.1596   -0.3463 O   0  0  0  1  0  0  0  0  0  0  0  0
   -4.2877   -1.7931   -0.1961 H   0  0  0  1  0  0  0  0  0  0  0  0
  1  2  1  0  0  0  0
  1  3  1  0  0  0  0
  1  4  1  0  0  0  0
  1 18  1  0  0  0  0
  3 24  1  0  0  0  0
  4  5  1  0  0  0  0
  4  6  1  0  0  0  0
  4  8  1  0  0  0  0
  6  7  1  0  0  0  0
  8  9  1  0  0  0  0
  8 10  1  0  0  0  0
  8 12  1  0  0  0  0
 10 11  1  0  0  0  0
 12 13  1  0  0  0  0
 12 14  1  0  0  0  0
 12 16  1  0  0  0  0
 14 15  1  0  0  0  0
 16 17  1  0  0  0  0
 16 18  1  0  0  0  0
 16 19  1  0  0  0  0
 19 20  1  0  0  0  0
 19 21  1  0  0  0  0
 19 22  1  0  0  0  0
 22 23  1  0  0  0  0
 24 25  1  0  0  0  0
 24 26  1  0  0  0  0
 24 40  1  0  0  0  0
 26 27  1  0  0  0  0
 26 28  1  0  0  0  0
 26 30  1  0  0  0  0
 28 29  1  0  0  0  0
 30 31  1  0  0  0  0
 30 32  1  0  0  0  0
 30 34  1  0  0  0  0
 32 33  1  0  0  0  0
 34 35  1  0  0  0  0
 34 36  1  0  0  0  0
 34 38  1  0  0  0  0
 36 37  1  0  0  0  0
 38 39  1  0  0  0  0
 38 40  1  0  0  0  0
 38 41  1  0  0  0  0
 41 42  1  0  0  0  0
 41 43  1  0  0  0  0
 41 44  1  0  0  0  0
 44 45  1  0  0  0  0
M  END
> <ConfClashScore>
0.0616084 

> <ConfOneFourInteractionScore>
-0.970385 

> <ConfScore>
6.76983 

> <ConfScorePBest>
0.00933049 

> <ConfTolerance>
0.739373 

$$$$
L16.****
  PyMOL2.4          3D                             0

 45 46  0  0  0  0  0  0  0  0999 V2000
    0.6255    0.3357    0.2437 C   0  0  0  1  0  0  0  0  0  0  0  0
   -0.1990    0.8569   -0.1962 H   0  0  0  1  0  0  0  0  0  0  0  0
    0.1413   -0.0109    1.5360 O   0  0  0  1  0  0  0  0  0  0  0  0
    1.2586    0.8316    0.4275 C   0  0  0  1  0  0  0  0  0  0  0  0
    1.1760    1.2096    1.4251 H   0  0  0  1  0  0  0  0  0  0  0  0
    1.1015    2.0200   -0.3552 O   0  0  0  1  0  0  0  0  0  0  0  0
    1.2859    2.7889    0.1892 H   0  0  0  1  0  0  0  0  0  0  0  0
    2.0303    0.5913    0.2631 C   0  0  0  1  0  0  0  0  0  0  0  0
    2.6698    0.7450    1.1071 H   0  0  0  1  0  0  0  0  0  0  0  0
    2.5630    1.5172   -0.6858 O   0  0  0  1  0  0  0  0  0  0  0  0
    3.0991    2.1703   -0.2301 H   0  0  0  1  0  0  0  0  0  0  0  0
    2.1689   -0.1439   -0.0847 C   0  0  0  1  0  0  0  0  0  0  0  0
    2.7564    0.0011   -0.9671 H   0  0  0  1  0  0  0  0  0  0  0  0
    3.0779   -0.8683    0.7207 O   0  0  0  1  0  0  0  0  0  0  0  0
    2.6113   -1.2472    1.4693 H   0  0  0  1  0  0  0  0  0  0  0  0
    1.5358   -0.6397   -0.2684 C   0  0  0  1  0  0  0  0  0  0  0  0
    1.7125   -1.6369    0.0768 H   0  0  0  1  0  0  0  0  0  0  0  0
    0.7641   -0.3995   -0.1040 O   0  0  0  1  0  0  0  0  0  0  0  0
    1.4841   -0.8462   -1.7549 C   0  0  0  1  0  0  0  0  0  0  0  0
    0.9035   -1.7181   -1.9729 H   0  0  0  1  0  0  0  0  0  0  0  0
    2.4776   -0.9754   -2.1308 H   0  0  0  1  0  0  0  0  0  0  0  0
    0.8884    0.2847   -2.3744 O   0  0  0  1  0  0  0  0  0  0  0  0
    1.5088    0.6740   -2.9950 H   0  0  0  1  0  0  0  0  0  0  0  0
   -1.2407    0.1512    1.6824 C   0  0  0  1  0  0  0  0  0  0  0  0
   -1.3582    1.1975    1.4916 H   0  0  0  1  0  0  0  0  0  0  0  0
   -1.3732   -0.0087    2.4809 C   0  0  0  1  0  0  0  0  0  0  0  0
   -0.4488   -0.0903    3.0136 H   0  0  0  1  0  0  0  0  0  0  0  0
   -1.9454    1.1684    3.0609 O   0  0  0  1  0  0  0  0  0  0  0  0
   -1.9381    1.0901    4.0177 H   0  0  0  1  0  0  0  0  0  0  0  0
   -1.8947   -0.6088    2.7009 C   0  0  0  1  0  0  0  0  0  0  0  0
   -2.6221   -0.2044    3.3734 H   0  0  0  1  0  0  0  0  0  0  0  0
   -1.1546   -1.4329    3.5735 O   0  0  0  1  0  0  0  0  0  0  0  0
   -1.7370   -2.0857    3.9687 H   0  0  0  1  0  0  0  0  0  0  0  0
   -2.2834   -1.0487    2.1215 C   0  0  0  1  0  0  0  0  0  0  0  0
   -2.2052   -2.0972    2.3201 H   0  0  0  1  0  0  0  0  0  0  0  0
   -3.6858   -0.8211    2.2851 O   0  0  0  1  0  0  0  0  0  0  0  0
   -3.8632    0.1218    2.2541 H   0  0  0  1  0  0  0  0  0  0  0  0
   -2.1509   -0.8888    1.3231 C   0  0  0  1  0  0  0  0  0  0  0  0
   -3.0901   -0.7367    0.8335 H   0  0  0  1  0  0  0  0  0  0  0  0
   -1.6295   -0.2887    1.1031 O   0  0  0  1  0  0  0  0  0  0  0  0
   -1.6201   -2.0502    0.5330 C   0  0  0  1  0  0  0  0  0  0  0  0
   -1.3429   -1.7177   -0.4455 H   0  0  0  1  0  0  0  0  0  0  0  0
   -2.3772   -2.8021    0.4537 H   0  0  0  1  0  0  0  0  0  0  0  0
   -0.4812   -2.5937    1.1875 O   0  0  0  1  0  0  0  0  0  0  0  0
   -0.7303   -2.8999    2.0626 H   0  0  0  1  0  0  0  0  0  0  0  0
  1  2  1  0  0  0  0
  1  3  1  0  0  0  0
  1  4  1  0  0  0  0
  1 18  1  0  0  0  0
  3 24  1  0  0  0  0
  4  5  1  0  0  0  0
  4  6  1  0  0  0  0
  4  8  1  0  0  0  0
  6  7  1  0  0  0  0
  8  9  1  0  0  0  0
  8 10  1  0  0  0  0
  8 12  1  0  0  0  0
 10 11  1  0  0  0  0
 12 13  1  0  0  0  0
 12 14  1  0  0  0  0
 12 16  1  0  0  0  0
 14 15  1  0  0  0  0
 16 17  1  0  0  0  0
 16 18  1  0  0  0  0
 16 19  1  0  0  0  0
 19 20  1  0  0  0  0
 19 21  1  0  0  0  0
 19 22  1  0  0  0  0
 22 23  1  0  0  0  0
 24 25  1  0  0  0  0
 24 26  1  0  0  0  0
 24 40  1  0  0  0  0
 26 27  1  0  0  0  0
 26 28  1  0  0  0  0
 26 30  1  0  0  0  0
 28 29  1  0  0  0  0
 30 31  1  0  0  0  0
 30 32  1  0  0  0  0
 30 34  1  0  0  0  0
 32 33  1  0  0  0  0
 34 35  1  0  0  0  0
 34 36  1  0  0  0  0
 34 38  1  0  0  0  0
 36 37  1  0  0  0  0
 38 39  1  0  0  0  0
 38 40  1  0  0  0  0
 38 41  1  0  0  0  0
 41 42  1  0  0  0  0
 41 43  1  0  0  0  0
 41 44  1  0  0  0  0
 44 45  1  0  0  0  0
M  END
> <ConfClashScore>
0.060388 

> <ConfOneFourInteractionScore>
-0.979514 

> <ConfScore>
6.77684 

> <ConfScorePBest>
0.00922749 

> <ConfTolerance>
0.789772 

$$$$
L16.****
  PyMOL2.4          3D                             0

 45 46  0  0  0  0  0  0  0  0999 V2000
    0.6978    0.5462    0.0920 C   0  0  0  1  0  0  0  0  0  0  0  0
   -0.0574    0.6273    0.8456 H   0  0  0  1  0  0  0  0  0  0  0  0
    0.1280    1.3019   -0.9706 O   0  0  0  1  0  0  0  0  0  0  0  0
    1.3631    0.9832    0.3083 C   0  0  0  1  0  0  0  0  0  0  0  0
    1.3714    1.9365   -0.1775 H   0  0  0  1  0  0  0  0  0  0  0  0
    1.0525    1.3405    1.6566 O   0  0  0  1  0  0  0  0  0  0  0  0
    0.4028    2.0473    1.6592 H   0  0  0  1  0  0  0  0  0  0  0  0
    2.1098    0.6332    0.2867 C   0  0  0  1  0  0  0  0  0  0  0  0
    2.6211    0.7947    1.2127 H   0  0  0  1  0  0  0  0  0  0  0  0
    2.8854    1.4301   -0.6103 O   0  0  0  1  0  0  0  0  0  0  0  0
    2.4220    1.5142   -1.4468 H   0  0  0  1  0  0  0  0  0  0  0  0
    2.1910   -0.1526    0.0492 C   0  0  0  1  0  0  0  0  0  0  0  0
    2.9877   -0.2719   -0.6550 H   0  0  0  1  0  0  0  0  0  0  0  0
    2.6701   -0.8858    1.1780 O   0  0  0  1  0  0  0  0  0  0  0  0
    3.5548   -1.2114    0.9967 H   0  0  0  1  0  0  0  0  0  0  0  0
    1.5256   -0.5896   -0.1671 C   0  0  0  1  0  0  0  0  0  0  0  0
    1.5185   -1.5464    0.3118 H   0  0  0  1  0  0  0  0  0  0  0  0
    0.7790   -0.2396   -0.1456 O   0  0  0  1  0  0  0  0  0  0  0  0
    1.6398   -0.9828   -1.6118 C   0  0  0  1  0  0  0  0  0  0  0  0
    2.6650   -1.1798   -1.8468 H   0  0  0  1  0  0  0  0  0  0  0  0
    1.2793   -0.1851   -2.2271 H   0  0  0  1  0  0  0  0  0  0  0  0
    0.8670   -2.1514   -1.8524 O   0  0  0  1  0  0  0  0  0  0  0  0
    1.4231   -2.9283   -1.7584 H   0  0  0  1  0  0  0  0  0  0  0  0
   -1.1709    0.8971   -1.3199 C   0  0  0  1  0  0  0  0  0  0  0  0
   -1.0874   -0.1695   -1.3025 H   0  0  0  1  0  0  0  0  0  0  0  0
   -1.2503    1.1757   -2.0924 C   0  0  0  1  0  0  0  0  0  0  0  0
   -0.3060    1.4678   -2.5021 H   0  0  0  1  0  0  0  0  0  0  0  0
   -1.5812    0.0381   -2.8776 O   0  0  0  1  0  0  0  0  0  0  0  0
   -1.0483    0.0339   -3.6761 H   0  0  0  1  0  0  0  0  0  0  0  0
   -1.8408    1.7215   -2.2760 C   0  0  0  1  0  0  0  0  0  0  0  0
   -1.4055    2.5614   -2.7758 H   0  0  0  1  0  0  0  0  0  0  0  0
   -2.6531    1.1746   -3.3158 O   0  0  0  1  0  0  0  0  0  0  0  0
   -2.2807    1.4077   -4.1694 H   0  0  0  1  0  0  0  0  0  0  0  0
   -2.3519    1.9884   -1.6862 C   0  0  0  1  0  0  0  0  0  0  0  0
   -3.3706    1.9374   -2.0095 H   0  0  0  1  0  0  0  0  0  0  0  0
   -2.1081    3.3964   -1.6976 O   0  0  0  1  0  0  0  0  0  0  0  0
   -2.8793    3.8524   -2.0426 H   0  0  0  1  0  0  0  0  0  0  0  0
   -2.2726    1.7098   -0.9137 C   0  0  0  1  0  0  0  0  0  0  0  0
   -2.2474    2.5286   -0.2253 H   0  0  0  1  0  0  0  0  0  0  0  0
   -1.6820    1.1640   -0.7301 O   0  0  0  1  0  0  0  0  0  0  0  0
   -3.5078    0.9877   -0.4505 C   0  0  0  1  0  0  0  0  0  0  0  0
   -4.3377    1.6614   -0.4987 H   0  0  0  1  0  0  0  0  0  0  0  0
   -3.3620    0.6725    0.5616 H   0  0  0  1  0  0  0  0  0  0  0  0
   -3.7999   -0.1535   -1.2460 O   0  0  0  1  0  0  0  0  0  0  0  0
   -3.7465    0.0815   -2.1753 H   0  0  0  1  0  0  0  0  0  0  0  0
  1  2  1  0  0  0  0
  1  3  1  0  0  0  0
  1  4  1  0  0  0  0
  1 18  1  0  0  0  0
  3 24  1  0  0  0  0
  4  5  1  0  0  0  0
  4  6  1  0  0  0  0
  4  8  1  0  0  0  0
  6  7  1  0  0  0  0
  8  9  1  0  0  0  0
  8 10  1  0  0  0  0
  8 12  1  0  0  0  0
 10 11  1  0  0  0  0
 12 13  1  0  0  0  0
 12 14  1  0  0  0  0
 12 16  1  0  0  0  0
 14 15  1  0  0  0  0
 16 17  1  0  0  0  0
 16 18  1  0  0  0  0
 16 19  1  0  0  0  0
 19 20  1  0  0  0  0
 19 21  1  0  0  0  0
 19 22  1  0  0  0  0
 22 23  1  0  0  0  0
 24 25  1  0  0  0  0
 24 26  1  0  0  0  0
 24 40  1  0  0  0  0
 26 27  1  0  0  0  0
 26 28  1  0  0  0  0
 26 30  1  0  0  0  0
 28 29  1  0  0  0  0
 30 31  1  0  0  0  0
 30 32  1  0  0  0  0
 30 34  1  0  0  0  0
 32 33  1  0  0  0  0
 34 35  1  0  0  0  0
 34 36  1  0  0  0  0
 34 38  1  0  0  0  0
 36 37  1  0  0  0  0
 38 39  1  0  0  0  0
 38 40  1  0  0  0  0
 38 41  1  0  0  0  0
 41 42  1  0  0  0  0
 41 43  1  0  0  0  0
 41 44  1  0  0  0  0
 44 45  1  0  0  0  0
M  END
> <ConfClashScore>
0.0609149 

> <ConfOneFourInteractionScore>
-0.964708 

> <ConfScore>
6.84381 

> <ConfScorePBest>
0.00912449 

> <ConfTolerance>
0.748878 

$$$$
L16.****
  PyMOL2.4          3D                             0

 45 46  0  0  0  0  0  0  0  0999 V2000
    0.5578    0.4240    0.0151 C   0  0  0  1  0  0  0  0  0  0  0  0
    0.0758    1.0082   -0.7407 H   0  0  0  1  0  0  0  0  0  0  0  0
   -0.4443    0.3526    1.0227 O   0  0  0  1  0  0  0  0  0  0  0  0
    1.1507    0.8578    0.3901 C   0  0  0  1  0  0  0  0  0  0  0  0
    0.7931    1.2951    1.2989 H   0  0  0  1  0  0  0  0  0  0  0  0
    1.4001    2.0100   -0.4165 O   0  0  0  1  0  0  0  0  0  0  0  0
    1.0962    2.7956    0.0442 H   0  0  0  1  0  0  0  0  0  0  0  0
    1.8994    0.5273    0.4934 C   0  0  0  1  0  0  0  0  0  0  0  0
    2.2370    0.6515    1.5012 H   0  0  0  1  0  0  0  0  0  0  0  0
    2.7632    1.4150   -0.2187 O   0  0  0  1  0  0  0  0  0  0  0  0
    3.6148    1.4561    0.2226 H   0  0  0  1  0  0  0  0  0  0  0  0
    2.0549   -0.2361    0.2221 C   0  0  0  1  0  0  0  0  0  0  0  0
    2.5386   -0.8203    0.9768 H   0  0  0  1  0  0  0  0  0  0  0  0
    3.0582   -0.1757   -0.7934 O   0  0  0  1  0  0  0  0  0  0  0  0
    3.9251   -0.2774   -0.3938 H   0  0  0  1  0  0  0  0  0  0  0  0
    1.4620   -0.6699   -0.1530 C   0  0  0  1  0  0  0  0  0  0  0  0
    1.8197   -1.1058   -1.0623 H   0  0  0  1  0  0  0  0  0  0  0  0
    0.7133   -0.3394   -0.2563 O   0  0  0  1  0  0  0  0  0  0  0  0
    1.1474   -1.8934    0.6594 C   0  0  0  1  0  0  0  0  0  0  0  0
    2.0154   -2.5166    0.7144 H   0  0  0  1  0  0  0  0  0  0  0  0
    0.3489   -2.4332    0.1948 H   0  0  0  1  0  0  0  0  0  0  0  0
    0.7579   -1.5099    1.9704 O   0  0  0  1  0  0  0  0  0  0  0  0
    0.5426   -2.2927    2.4827 H   0  0  0  1  0  0  0  0  0  0  0  0
   -1.7099   -0.0159    0.5372 C   0  0  0  1  0  0  0  0  0  0  0  0
   -1.7683    0.5323   -0.3799 H   0  0  0  1  0  0  0  0  0  0  0  0
   -2.2232    0.2965    1.1024 C   0  0  0  1  0  0  0  0  0  0  0  0
   -1.7423    1.0168    1.7307 H   0  0  0  1  0  0  0  0  0  0  0  0
   -3.1787    1.0822    0.4025 O   0  0  0  1  0  0  0  0  0  0  0  0
   -3.2122    1.9620    0.7851 H   0  0  0  1  0  0  0  0  0  0  0  0
   -2.7231   -0.2033    1.5275 C   0  0  0  1  0  0  0  0  0  0  0  0
   -2.6975    0.0141    2.5749 H   0  0  0  1  0  0  0  0  0  0  0  0
   -4.0506    0.1841    1.1704 O   0  0  0  1  0  0  0  0  0  0  0  0
   -4.5947    0.2292    1.9601 H   0  0  0  1  0  0  0  0  0  0  0  0
   -2.7089   -1.0159    1.3867 C   0  0  0  1  0  0  0  0  0  0  0  0
   -3.6988   -1.4031    1.2640 H   0  0  0  1  0  0  0  0  0  0  0  0
   -2.2929   -1.6434    2.6013 O   0  0  0  1  0  0  0  0  0  0  0  0
   -1.6008   -1.1197    3.0118 H   0  0  0  1  0  0  0  0  0  0  0  0
   -2.1955   -1.3283    0.8215 C   0  0  0  1  0  0  0  0  0  0  0  0
   -1.6714   -2.1826    1.1960 H   0  0  0  1  0  0  0  0  0  0  0  0
   -1.6957   -0.8285    0.3964 O   0  0  0  1  0  0  0  0  0  0  0  0
   -2.9738   -1.9281   -0.3142 C   0  0  0  1  0  0  0  0  0  0  0  0
   -3.4756   -1.1505   -0.8512 H   0  0  0  1  0  0  0  0  0  0  0  0
   -3.6948   -2.6171    0.0736 H   0  0  0  1  0  0  0  0  0  0  0  0
   -2.0895   -2.6133   -1.1912 O   0  0  0  1  0  0  0  0  0  0  0  0
   -2.5078   -3.4193   -1.5026 H   0  0  0  1  0  0  0  0  0  0  0  0
  1  2  1  0  0  0  0
  1  3  1  0  0  0  0
  1  4  1  0  0  0  0
  1 18  1  0  0  0  0
  3 24  1  0  0  0  0
  4  5  1  0  0  0  0
  4  6  1  0  0  0  0
  4  8  1  0  0  0  0
  6  7  1  0  0  0  0
  8  9  1  0  0  0  0
  8 10  1  0  0  0  0
  8 12  1  0  0  0  0
 10 11  1  0  0  0  0
 12 13  1  0  0  0  0
 12 14  1  0  0  0  0
 12 16  1  0  0  0  0
 14 15  1  0  0  0  0
 16 17  1  0  0  0  0
 16 18  1  0  0  0  0
 16 19  1  0  0  0  0
 19 20  1  0  0  0  0
 19 21  1  0  0  0  0
 19 22  1  0  0  0  0
 22 23  1  0  0  0  0
 24 25  1  0  0  0  0
 24 26  1  0  0  0  0
 24 40  1  0  0  0  0
 26 27  1  0  0  0  0
 26 28  1  0  0  0  0
 26 30  1  0  0  0  0
 28 29  1  0  0  0  0
 30 31  1  0  0  0  0
 30 32  1  0  0  0  0
 30 34  1  0  0  0  0
 32 33  1  0  0  0  0
 34 35  1  0  0  0  0
 34 36  1  0  0  0  0
 34 38  1  0  0  0  0
 36 37  1  0  0  0  0
 38 39  1  0  0  0  0
 38 40  1  0  0  0  0
 38 41  1  0  0  0  0
 41 42  1  0  0  0  0
 41 43  1  0  0  0  0
 41 44  1  0  0  0  0
 44 45  1  0  0  0  0
M  END
> <ConfClashScore>
0.0613933 

> <ConfOneFourInteractionScore>
-0.974268 

> <ConfScore>
6.8442 

> <ConfScorePBest>
0.00902149 

> <ConfTolerance>
0.663528 

$$$$
L16.****
  PyMOL2.4          3D                             0

 45 46  0  0  0  0  0  0  0  0999 V2000
    0.6443    0.4816   -0.0420 C   0  0  0  1  0  0  0  0  0  0  0  0
   -0.1232    0.8615    0.5994 H   0  0  0  1  0  0  0  0  0  0  0  0
    0.1309    0.7809   -1.3349 O   0  0  0  1  0  0  0  0  0  0  0  0
    1.3335    0.9301    0.0235 C   0  0  0  1  0  0  0  0  0  0  0  0
    1.3892    1.6634   -0.7538 H   0  0  0  1  0  0  0  0  0  0  0  0
    1.2012    1.7447    1.1894 O   0  0  0  1  0  0  0  0  0  0  0  0
    0.4703    2.3560    1.0720 H   0  0  0  1  0  0  0  0  0  0  0  0
    2.0603    0.5544    0.1281 C   0  0  0  1  0  0  0  0  0  0  0  0
    2.7621    0.9153   -0.5945 H   0  0  0  1  0  0  0  0  0  0  0  0
    2.6158    1.0705    1.3390 O   0  0  0  1  0  0  0  0  0  0  0  0
    3.2013    1.8037    1.1361 H   0  0  0  1  0  0  0  0  0  0  0  0
    2.0979   -0.2688    0.1670 C   0  0  0  1  0  0  0  0  0  0  0  0
    2.7068   -0.5978    0.9830 H   0  0  0  1  0  0  0  0  0  0  0  0
    2.8635   -0.6774   -0.9680 O   0  0  0  1  0  0  0  0  0  0  0  0
    3.7282   -0.2613   -0.9379 H   0  0  0  1  0  0  0  0  0  0  0  0
    1.4088   -0.7173    0.1015 C   0  0  0  1  0  0  0  0  0  0  0  0
    1.5361   -1.4890   -0.6287 H   0  0  0  1  0  0  0  0  0  0  0  0
    0.6819   -0.3416   -0.0030 O   0  0  0  1  0  0  0  0  0  0  0  0
    1.1540   -1.5339    1.3357 C   0  0  0  1  0  0  0  0  0  0  0  0
    0.7816   -0.8985    2.1119 H   0  0  0  1  0  0  0  0  0  0  0  0
    2.0677   -1.9900    1.6552 H   0  0  0  1  0  0  0  0  0  0  0  0
    0.1936   -2.5465    1.0511 O   0  0  0  1  0  0  0  0  0  0  0  0
   -0.6780   -2.1505    0.9796 H   0  0  0  1  0  0  0  0  0  0  0  0
   -1.2188    0.4322   -1.5703 C   0  0  0  1  0  0  0  0  0  0  0  0
   -1.1494   -0.1848   -2.4417 H   0  0  0  1  0  0  0  0  0  0  0  0
   -1.5507    1.1676   -1.7425 C   0  0  0  1  0  0  0  0  0  0  0  0
   -1.8234    1.2347   -2.7750 H   0  0  0  1  0  0  0  0  0  0  0  0
   -0.5066    2.1273   -1.6483 O   0  0  0  1  0  0  0  0  0  0  0  0
   -0.5411    2.7140   -2.4075 H   0  0  0  1  0  0  0  0  0  0  0  0
   -2.1426    1.4771   -1.2584 C   0  0  0  1  0  0  0  0  0  0  0  0
   -1.9373    2.4950   -1.0005 H   0  0  0  1  0  0  0  0  0  0  0  0
   -3.2598    1.6125   -2.1379 O   0  0  0  1  0  0  0  0  0  0  0  0
   -3.6213    2.4987   -2.0627 H   0  0  0  1  0  0  0  0  0  0  0  0
   -2.4021    1.0503   -0.6020 C   0  0  0  1  0  0  0  0  0  0  0  0
   -3.4707    1.0040   -0.5735 H   0  0  0  1  0  0  0  0  0  0  0  0
   -2.1146    1.9141    0.4995 O   0  0  0  1  0  0  0  0  0  0  0  0
   -2.7298    2.6511    0.4979 H   0  0  0  1  0  0  0  0  0  0  0  0
   -2.0701    0.3149   -0.4299 C   0  0  0  1  0  0  0  0  0  0  0  0
   -1.7428    0.3003    0.5887 H   0  0  0  1  0  0  0  0  0  0  0  0
   -1.4783    0.0054   -0.9139 O   0  0  0  1  0  0  0  0  0  0  0  0
   -3.1193   -0.7593   -0.3976 C   0  0  0  1  0  0  0  0  0  0  0  0
   -3.8822   -0.4733    0.2961 H   0  0  0  1  0  0  0  0  0  0  0  0
   -2.6657   -1.6725   -0.0732 H   0  0  0  1  0  0  0  0  0  0  0  0
   -3.7164   -0.9733   -1.6697 O   0  0  0  1  0  0  0  0  0  0  0  0
   -4.4763   -0.3950   -1.7683 H   0  0  0  1  0  0  0  0  0  0  0  0
  1  2  1  0  0  0  0
  1  3  1  0  0  0  0
  1  4  1  0  0  0  0
  1 18  1  0  0  0  0
  3 24  1  0  0  0  0
  4  5  1  0  0  0  0
  4  6  1  0  0  0  0
  4  8  1  0  0  0  0
  6  7  1  0  0  0  0
  8  9  1  0  0  0  0
  8 10  1  0  0  0  0
  8 12  1  0  0  0  0
 10 11  1  0  0  0  0
 12 13  1  0  0  0  0
 12 14  1  0  0  0  0
 12 16  1  0  0  0  0
 14 15  1  0  0  0  0
 16 17  1  0  0  0  0
 16 18  1  0  0  0  0
 16 19  1  0  0  0  0
 19 20  1  0  0  0  0
 19 21  1  0  0  0  0
 19 22  1  0  0  0  0
 22 23  1  0  0  0  0
 24 25  1  0  0  0  0
 24 26  1  0  0  0  0
 24 40  1  0  0  0  0
 26 27  1  0  0  0  0
 26 28  1  0  0  0  0
 26 30  1  0  0  0  0
 28 29  1  0  0  0  0
 30 31  1  0  0  0  0
 30 32  1  0  0  0  0
 30 34  1  0  0  0  0
 32 33  1  0  0  0  0
 34 35  1  0  0  0  0
 34 36  1  0  0  0  0
 34 38  1  0  0  0  0
 36 37  1  0  0  0  0
 38 39  1  0  0  0  0
 38 40  1  0  0  0  0
 38 41  1  0  0  0  0
 41 42  1  0  0  0  0
 41 43  1  0  0  0  0
 41 44  1  0  0  0  0
 44 45  1  0  0  0  0
M  END
> <ConfClashScore>
0.0612058 

> <ConfOneFourInteractionScore>
-0.96156 

> <ConfScore>
6.89234 

> <ConfScorePBest>
0.00891849 

> <ConfTolerance>
0.746471 

$$$$
L16.****
  PyMOL2.4          3D                             0

 45 46  0  0  0  0  0  0  0  0999 V2000
    0.6138    0.6130   -0.1315 C   0  0  0  1  0  0  0  0  0  0  0  0
   -0.3103    0.8603    0.3479 H   0  0  0  1  0  0  0  0  0  0  0  0
    0.4520    1.1698   -1.4401 O   0  0  0  1  0  0  0  0  0  0  0  0
    1.2481    1.0437    0.1726 C   0  0  0  1  0  0  0  0  0  0  0  0
    1.4352    1.8982   -0.4435 H   0  0  0  1  0  0  0  0  0  0  0  0
    0.7842    1.6612    1.3742 O   0  0  0  1  0  0  0  0  0  0  0  0
    0.3327    1.0097    1.9156 H   0  0  0  1  0  0  0  0  0  0  0  0
    1.9588    0.6624    0.3455 C   0  0  0  1  0  0  0  0  0  0  0  0
    2.3130    0.9305    1.3190 H   0  0  0  1  0  0  0  0  0  0  0  0
    2.9566    1.2344   -0.5015 O   0  0  0  1  0  0  0  0  0  0  0  0
    3.7758    1.3324   -0.0107 H   0  0  0  1  0  0  0  0  0  0  0  0
    2.0351   -0.1485    0.2145 C   0  0  0  1  0  0  0  0  0  0  0  0
    2.4544   -0.6366    1.0694 H   0  0  0  1  0  0  0  0  0  0  0  0
    3.1027   -0.2405   -0.7311 O   0  0  0  1  0  0  0  0  0  0  0  0
    3.9060   -0.5136   -0.2819 H   0  0  0  1  0  0  0  0  0  0  0  0
    1.4007   -0.5792   -0.0895 C   0  0  0  1  0  0  0  0  0  0  0  0
    1.7194   -1.1633   -0.9275 H   0  0  0  1  0  0  0  0  0  0  0  0
    0.6900   -0.1980   -0.2625 O   0  0  0  1  0  0  0  0  0  0  0  0
    0.9948   -1.6610    0.8731 C   0  0  0  1  0  0  0  0  0  0  0  0
    1.8404   -2.2798    1.0900 H   0  0  0  1  0  0  0  0  0  0  0  0
    0.2205   -2.2552    0.4345 H   0  0  0  1  0  0  0  0  0  0  0  0
    0.5169   -1.0762    2.0760 O   0  0  0  1  0  0  0  0  0  0  0  0
   -0.4417   -1.1243    2.0970 H   0  0  0  1  0  0  0  0  0  0  0  0
   -0.8371    1.6694   -1.5786 C   0  0  0  1  0  0  0  0  0  0  0  0
   -1.1143    1.8656   -0.5640 H   0  0  0  1  0  0  0  0  0  0  0  0
   -0.8137    2.3676   -2.0176 C   0  0  0  1  0  0  0  0  0  0  0  0
    0.2025    2.6847   -2.1252 H   0  0  0  1  0  0  0  0  0  0  0  0
   -1.3348    3.3966   -1.1871 O   0  0  0  1  0  0  0  0  0  0  0  0
   -0.6776    4.0889   -1.0842 H   0  0  0  1  0  0  0  0  0  0  0  0
   -1.1916    2.4079   -2.7497 C   0  0  0  1  0  0  0  0  0  0  0  0
   -1.7945    3.2889   -2.8228 H   0  0  0  1  0  0  0  0  0  0  0  0
   -0.1048    2.7195   -3.6225 O   0  0  0  1  0  0  0  0  0  0  0  0
   -0.0054    3.6724   -3.6830 H   0  0  0  1  0  0  0  0  0  0  0  0
   -1.5928    1.7493   -3.0423 C   0  0  0  1  0  0  0  0  0  0  0  0
   -1.3114    1.5519   -4.0556 H   0  0  0  1  0  0  0  0  0  0  0  0
   -2.9149    2.2681   -3.2010 O   0  0  0  1  0  0  0  0  0  0  0  0
   -3.2533    2.5495   -2.3479 H   0  0  0  1  0  0  0  0  0  0  0  0
   -1.6162    1.0512   -2.6033 C   0  0  0  1  0  0  0  0  0  0  0  0
   -2.6247    0.7045   -2.5166 H   0  0  0  1  0  0  0  0  0  0  0  0
   -1.2383    1.0108   -1.8712 O   0  0  0  1  0  0  0  0  0  0  0  0
   -0.9953   -0.0735   -3.3808 C   0  0  0  1  0  0  0  0  0  0  0  0
   -1.5919   -0.2611   -4.2490 H   0  0  0  1  0  0  0  0  0  0  0  0
   -0.9769   -0.9479   -2.7643 H   0  0  0  1  0  0  0  0  0  0  0  0
    0.3324    0.2207   -3.7946 O   0  0  0  1  0  0  0  0  0  0  0  0
    0.9226   -0.4752   -3.4966 H   0  0  0  1  0  0  0  0  0  0  0  0
  1  2  1  0  0  0  0
  1  3  1  0  0  0  0
  1  4  1  0  0  0  0
  1 18  1  0  0  0  0
  3 24  1  0  0  0  0
  4  5  1  0  0  0  0
  4  6  1  0  0  0  0
  4  8  1  0  0  0  0
  6  7  1  0  0  0  0
  8  9  1  0  0  0  0
  8 10  1  0  0  0  0
  8 12  1  0  0  0  0
 10 11  1  0  0  0  0
 12 13  1  0  0  0  0
 12 14  1  0  0  0  0
 12 16  1  0  0  0  0
 14 15  1  0  0  0  0
 16 17  1  0  0  0  0
 16 18  1  0  0  0  0
 16 19  1  0  0  0  0
 19 20  1  0  0  0  0
 19 21  1  0  0  0  0
 19 22  1  0  0  0  0
 22 23  1  0  0  0  0
 24 25  1  0  0  0  0
 24 26  1  0  0  0  0
 24 40  1  0  0  0  0
 26 27  1  0  0  0  0
 26 28  1  0  0  0  0
 26 30  1  0  0  0  0
 28 29  1  0  0  0  0
 30 31  1  0  0  0  0
 30 32  1  0  0  0  0
 30 34  1  0  0  0  0
 32 33  1  0  0  0  0
 34 35  1  0  0  0  0
 34 36  1  0  0  0  0
 34 38  1  0  0  0  0
 36 37  1  0  0  0  0
 38 39  1  0  0  0  0
 38 40  1  0  0  0  0
 38 41  1  0  0  0  0
 41 42  1  0  0  0  0
 41 43  1  0  0  0  0
 41 44  1  0  0  0  0
 44 45  1  0  0  0  0
M  END
> <ConfClashScore>
0.0616419 

> <ConfOneFourInteractionScore>
-0.980144 

> <ConfScore>
6.90298 

> <ConfScorePBest>
0.00881549 

> <ConfTolerance>
0.727871 

$$$$
L16.****
  PyMOL2.4          3D                             0

 45 46  0  0  0  0  0  0  0  0999 V2000
    0.5536    0.3195    0.3409 C   0  0  0  1  0  0  0  0  0  0  0  0
   -0.4263    0.4130   -0.0786 H   0  0  0  1  0  0  0  0  0  0  0  0
    0.3637    0.7202    1.6585 O   0  0  0  1  0  0  0  0  0  0  0  0
    1.0761    0.8765    0.0294 C   0  0  0  1  0  0  0  0  0  0  0  0
    0.5974    1.4279   -0.7527 H   0  0  0  1  0  0  0  0  0  0  0  0
    1.3107    1.8964    0.9892 O   0  0  0  1  0  0  0  0  0  0  0  0
    1.3051    2.7525    0.5549 H   0  0  0  1  0  0  0  0  0  0  0  0
    1.8297    0.6436   -0.2118 C   0  0  0  1  0  0  0  0  0  0  0  0
    2.0289    1.0008   -1.2006 H   0  0  0  1  0  0  0  0  0  0  0  0
    2.7721    1.3930    0.5575 O   0  0  0  1  0  0  0  0  0  0  0  0
    3.4929    1.6787   -0.0086 H   0  0  0  1  0  0  0  0  0  0  0  0
    2.0605   -0.1453   -0.1415 C   0  0  0  1  0  0  0  0  0  0  0  0
    2.5293   -0.5005   -1.0354 H   0  0  0  1  0  0  0  0  0  0  0  0
    3.1572   -0.0856    0.7742 O   0  0  0  1  0  0  0  0  0  0  0  0
    3.6566   -0.9043    0.7299 H   0  0  0  1  0  0  0  0  0  0  0  0
    1.5380   -0.7023    0.1700 C   0  0  0  1  0  0  0  0  0  0  0  0
    2.0138   -1.3048    0.9153 H   0  0  0  1  0  0  0  0  0  0  0  0
    0.7843   -0.4694    0.4111 O   0  0  0  1  0  0  0  0  0  0  0  0
    1.2195   -1.7348   -0.8896 C   0  0  0  1  0  0  0  0  0  0  0  0
    0.4987   -2.4203   -0.4953 H   0  0  0  1  0  0  0  0  0  0  0  0
    2.1172   -2.2626   -1.1354 H   0  0  0  1  0  0  0  0  0  0  0  0
    0.6944   -1.1525   -2.0739 O   0  0  0  1  0  0  0  0  0  0  0  0
    0.2221   -1.8199   -2.5770 H   0  0  0  1  0  0  0  0  0  0  0  0
   -0.5381    0.0459    2.4983 C   0  0  0  1  0  0  0  0  0  0  0  0
   -0.7670   -0.8311    1.9296 H   0  0  0  1  0  0  0  0  0  0  0  0
   -1.1722    0.5736    2.5027 C   0  0  0  1  0  0  0  0  0  0  0  0
   -2.0089    0.1171    2.0165 H   0  0  0  1  0  0  0  0  0  0  0  0
   -0.8905    1.6408    1.6073 O   0  0  0  1  0  0  0  0  0  0  0  0
   -1.4705    1.5809    0.8447 H   0  0  0  1  0  0  0  0  0  0  0  0
   -1.4245    0.9100    3.2123 C   0  0  0  1  0  0  0  0  0  0  0  0
   -2.4882    0.8567    3.3156 H   0  0  0  1  0  0  0  0  0  0  0  0
   -1.2084    2.3095    3.0250 O   0  0  0  1  0  0  0  0  0  0  0  0
   -2.0246    2.7854    3.1953 H   0  0  0  1  0  0  0  0  0  0  0  0
   -1.0420    0.7181    3.9174 C   0  0  0  1  0  0  0  0  0  0  0  0
   -1.7579    0.4273    4.6576 H   0  0  0  1  0  0  0  0  0  0  0  0
   -0.5007    1.9067    4.4974 O   0  0  0  1  0  0  0  0  0  0  0  0
   -0.6094    1.8762    5.4508 H   0  0  0  1  0  0  0  0  0  0  0  0
   -0.4079    0.1903    3.9130 C   0  0  0  1  0  0  0  0  0  0  0  0
    0.4245    0.6107    4.4376 H   0  0  0  1  0  0  0  0  0  0  0  0
   -0.1555   -0.1461    3.2034 O   0  0  0  1  0  0  0  0  0  0  0  0
   -0.7152   -0.9999    4.7755 C   0  0  0  1  0  0  0  0  0  0  0  0
   -0.9551   -0.6796    5.7678 H   0  0  0  1  0  0  0  0  0  0  0  0
    0.1292   -1.6563    4.8064 H   0  0  0  1  0  0  0  0  0  0  0  0
   -1.8290   -1.6688    4.1988 O   0  0  0  1  0  0  0  0  0  0  0  0
   -1.7689   -2.6090    4.3834 H   0  0  0  1  0  0  0  0  0  0  0  0
  1  2  1  0  0  0  0
  1  3  1  0  0  0  0
  1  4  1  0  0  0  0
  1 18  1  0  0  0  0
  3 24  1  0  0  0  0
  4  5  1  0  0  0  0
  4  6  1  0  0  0  0
  4  8  1  0  0  0  0
  6  7  1  0  0  0  0
  8  9  1  0  0  0  0
  8 10  1  0  0  0  0
  8 12  1  0  0  0  0
 10 11  1  0  0  0  0
 12 13  1  0  0  0  0
 12 14  1  0  0  0  0
 12 16  1  0  0  0  0
 14 15  1  0  0  0  0
 16 17  1  0  0  0  0
 16 18  1  0  0  0  0
 16 19  1  0  0  0  0
 19 20  1  0  0  0  0
 19 21  1  0  0  0  0
 19 22  1  0  0  0  0
 22 23  1  0  0  0  0
 24 25  1  0  0  0  0
 24 26  1  0  0  0  0
 24 40  1  0  0  0  0
 26 27  1  0  0  0  0
 26 28  1  0  0  0  0
 26 30  1  0  0  0  0
 28 29  1  0  0  0  0
 30 31  1  0  0  0  0
 30 32  1  0  0  0  0
 30 34  1  0  0  0  0
 32 33  1  0  0  0  0
 34 35  1  0  0  0  0
 34 36  1  0  0  0  0
 34 38  1  0  0  0  0
 36 37  1  0  0  0  0
 38 39  1  0  0  0  0
 38 40  1  0  0  0  0
 38 41  1  0  0  0  0
 41 42  1  0  0  0  0
 41 43  1  0  0  0  0
 41 44  1  0  0  0  0
 44 45  1  0  0  0  0
M  END
> <ConfClashScore>
0.0617948 

> <ConfOneFourInteractionScore>
-0.976996 

> <ConfScore>
6.91271 

> <ConfScorePBest>
0.00871249 

> <ConfTolerance>
0.878315 

$$$$
L16.****
  PyMOL2.4          3D                             0

 45 46  0  0  0  0  0  0  0  0999 V2000
    0.5692    0.4510   -0.0668 C   0  0  0  1  0  0  0  0  0  0  0  0
   -0.3094    0.5858    0.5288 H   0  0  0  1  0  0  0  0  0  0  0  0
    0.1411    0.9129   -1.3428 O   0  0  0  1  0  0  0  0  0  0  0  0
    1.1753    0.9478    0.1906 C   0  0  0  1  0  0  0  0  0  0  0  0
    1.2106    1.8550   -0.3757 H   0  0  0  1  0  0  0  0  0  0  0  0
    0.8132    1.4150    1.4926 O   0  0  0  1  0  0  0  0  0  0  0  0
    0.8572    2.3737    1.5128 H   0  0  0  1  0  0  0  0  0  0  0  0
    1.9296    0.6416    0.3233 C   0  0  0  1  0  0  0  0  0  0  0  0
    2.2847    0.9378    1.2882 H   0  0  0  1  0  0  0  0  0  0  0  0
    2.8002    1.3716   -0.5376 O   0  0  0  1  0  0  0  0  0  0  0  0
    3.6236    1.5554   -0.0796 H   0  0  0  1  0  0  0  0  0  0  0  0
    2.0776   -0.1604    0.1987 C   0  0  0  1  0  0  0  0  0  0  0  0
    2.5480   -0.5805    1.0631 H   0  0  0  1  0  0  0  0  0  0  0  0
    3.1256   -0.2618   -0.7666 O   0  0  0  1  0  0  0  0  0  0  0  0
    3.8494   -0.7757   -0.4010 H   0  0  0  1  0  0  0  0  0  0  0  0
    1.4715   -0.6572   -0.0587 C   0  0  0  1  0  0  0  0  0  0  0  0
    1.7939   -1.2288   -0.9038 H   0  0  0  1  0  0  0  0  0  0  0  0
    0.7172   -0.3510   -0.1914 O   0  0  0  1  0  0  0  0  0  0  0  0
    1.1843   -1.7572    0.9379 C   0  0  0  1  0  0  0  0  0  0  0  0
    1.9702   -2.4814    0.8859 H   0  0  0  1  0  0  0  0  0  0  0  0
    0.2546   -2.2199    0.6801 H   0  0  0  1  0  0  0  0  0  0  0  0
    1.0982   -1.2726    2.2715 O   0  0  0  1  0  0  0  0  0  0  0  0
    1.3981   -1.9523    2.8795 H   0  0  0  1  0  0  0  0  0  0  0  0
   -0.9379    0.1726   -1.8853 C   0  0  0  1  0  0  0  0  0  0  0  0
   -0.9020   -0.7338   -1.3178 H   0  0  0  1  0  0  0  0  0  0  0  0
   -1.5876    0.6359   -1.6760 C   0  0  0  1  0  0  0  0  0  0  0  0
   -1.3010    1.3807   -0.9632 H   0  0  0  1  0  0  0  0  0  0  0  0
   -2.4672   -0.1742   -0.9078 O   0  0  0  1  0  0  0  0  0  0  0  0
   -2.3506    0.0212    0.0248 H   0  0  0  1  0  0  0  0  0  0  0  0
   -2.0649    0.9667   -2.2618 C   0  0  0  1  0  0  0  0  0  0  0  0
   -3.1011    0.7943   -2.0585 H   0  0  0  1  0  0  0  0  0  0  0  0
   -1.9474    2.3724   -2.0375 O   0  0  0  1  0  0  0  0  0  0  0  0
   -1.2630    2.7317   -2.6068 H   0  0  0  1  0  0  0  0  0  0  0  0
   -1.8916    0.8336   -3.0572 C   0  0  0  1  0  0  0  0  0  0  0  0
   -1.9042    1.7491   -3.6110 H   0  0  0  1  0  0  0  0  0  0  0  0
   -2.9700    0.1108   -3.6561 O   0  0  0  1  0  0  0  0  0  0  0  0
   -2.9322   -0.8079   -3.3803 H   0  0  0  1  0  0  0  0  0  0  0  0
   -1.2418    0.3703   -3.2665 C   0  0  0  1  0  0  0  0  0  0  0  0
   -1.5102   -0.3592   -4.0017 H   0  0  0  1  0  0  0  0  0  0  0  0
   -0.7646    0.0396   -2.6806 O   0  0  0  1  0  0  0  0  0  0  0  0
   -0.2536    1.2099   -4.0283 C   0  0  0  1  0  0  0  0  0  0  0  0
    0.1251    1.9805   -3.3899 H   0  0  0  1  0  0  0  0  0  0  0  0
   -0.7393    1.6523   -4.8729 H   0  0  0  1  0  0  0  0  0  0  0  0
    0.8223    0.3954   -4.4753 O   0  0  0  1  0  0  0  0  0  0  0  0
    0.6342   -0.5238   -4.2720 H   0  0  0  1  0  0  0  0  0  0  0  0
  1  2  1  0  0  0  0
  1  3  1  0  0  0  0
  1  4  1  0  0  0  0
  1 18  1  0  0  0  0
  3 24  1  0  0  0  0
  4  5  1  0  0  0  0
  4  6  1  0  0  0  0
  4  8  1  0  0  0  0
  6  7  1  0  0  0  0
  8  9  1  0  0  0  0
  8 10  1  0  0  0  0
  8 12  1  0  0  0  0
 10 11  1  0  0  0  0
 12 13  1  0  0  0  0
 12 14  1  0  0  0  0
 12 16  1  0  0  0  0
 14 15  1  0  0  0  0
 16 17  1  0  0  0  0
 16 18  1  0  0  0  0
 16 19  1  0  0  0  0
 19 20  1  0  0  0  0
 19 21  1  0  0  0  0
 19 22  1  0  0  0  0
 22 23  1  0  0  0  0
 24 25  1  0  0  0  0
 24 26  1  0  0  0  0
 24 40  1  0  0  0  0
 26 27  1  0  0  0  0
 26 28  1  0  0  0  0
 26 30  1  0  0  0  0
 28 29  1  0  0  0  0
 30 31  1  0  0  0  0
 30 32  1  0  0  0  0
 30 34  1  0  0  0  0
 32 33  1  0  0  0  0
 34 35  1  0  0  0  0
 34 36  1  0  0  0  0
 34 38  1  0  0  0  0
 36 37  1  0  0  0  0
 38 39  1  0  0  0  0
 38 40  1  0  0  0  0
 38 41  1  0  0  0  0
 41 42  1  0  0  0  0
 41 43  1  0  0  0  0
 41 44  1  0  0  0  0
 44 45  1  0  0  0  0
M  END
> <ConfClashScore>
0.0605367 

> <ConfOneFourInteractionScore>
-0.970385 

> <ConfScore>
6.92297 

> <ConfScorePBest>
0.00860949 

> <ConfTolerance>
0.865215 

$$$$
L16.****
  PyMOL2.4          3D                             0

 45 46  0  0  0  0  0  0  0  0999 V2000
    0.5482    0.3482    0.2007 C   0  0  0  1  0  0  0  0  0  0  0  0
   -0.2897    0.3283    0.8658 H   0  0  0  1  0  0  0  0  0  0  0  0
    0.0542    1.1289   -0.8814 O   0  0  0  1  0  0  0  0  0  0  0  0
    1.1563    0.8158    0.5039 C   0  0  0  1  0  0  0  0  0  0  0  0
    0.8856    1.2512    1.4431 H   0  0  0  1  0  0  0  0  0  0  0  0
    1.1796    1.9523   -0.3610 O   0  0  0  1  0  0  0  0  0  0  0  0
    1.2640    2.7522    0.1630 H   0  0  0  1  0  0  0  0  0  0  0  0
    1.9294    0.5286    0.5152 C   0  0  0  1  0  0  0  0  0  0  0  0
    2.3721    0.6677    1.4793 H   0  0  0  1  0  0  0  0  0  0  0  0
    2.6946    1.4268   -0.2904 O   0  0  0  1  0  0  0  0  0  0  0  0
    3.3152    1.9053    0.2641 H   0  0  0  1  0  0  0  0  0  0  0  0
    2.0943   -0.2254    0.2235 C   0  0  0  1  0  0  0  0  0  0  0  0
    2.7250   -0.7779    0.8882 H   0  0  0  1  0  0  0  0  0  0  0  0
    2.9282   -0.0678   -0.9283 O   0  0  0  1  0  0  0  0  0  0  0  0
    3.7094   -0.6182   -0.8360 H   0  0  0  1  0  0  0  0  0  0  0  0
    1.4862   -0.6930   -0.0797 C   0  0  0  1  0  0  0  0  0  0  0  0
    1.7564   -1.1100   -1.0273 H   0  0  0  1  0  0  0  0  0  0  0  0
    0.7131   -0.4057   -0.0909 O   0  0  0  1  0  0  0  0  0  0  0  0
    1.3411   -1.9322    0.7600 C   0  0  0  1  0  0  0  0  0  0  0  0
    2.2486   -2.4976    0.7193 H   0  0  0  1  0  0  0  0  0  0  0  0
    0.5339   -2.5248    0.3829 H   0  0  0  1  0  0  0  0  0  0  0  0
    1.0713   -1.5689    2.1063 O   0  0  0  1  0  0  0  0  0  0  0  0
    0.5390   -2.2513    2.5218 H   0  0  0  1  0  0  0  0  0  0  0  0
   -1.0850    0.6345   -1.5379 C   0  0  0  1  0  0  0  0  0  0  0  0
   -0.8385    0.7917   -2.5672 H   0  0  0  1  0  0  0  0  0  0  0  0
   -1.6791    1.1519   -1.2930 C   0  0  0  1  0  0  0  0  0  0  0  0
   -2.0306    1.6961   -2.1446 H   0  0  0  1  0  0  0  0  0  0  0  0
   -1.0755    2.1975   -0.5430 O   0  0  0  1  0  0  0  0  0  0  0  0
   -1.5037    3.0307   -0.7527 H   0  0  0  1  0  0  0  0  0  0  0  0
   -2.3306    0.8652   -0.8762 C   0  0  0  1  0  0  0  0  0  0  0  0
   -2.5194    1.4573   -0.0052 H   0  0  0  1  0  0  0  0  0  0  0  0
   -3.4902    1.1264   -1.6682 O   0  0  0  1  0  0  0  0  0  0  0  0
   -4.2200    1.3741   -1.0958 H   0  0  0  1  0  0  0  0  0  0  0  0
   -2.3873    0.0604   -0.7046 C   0  0  0  1  0  0  0  0  0  0  0  0
   -3.3618   -0.3235   -0.9236 H   0  0  0  1  0  0  0  0  0  0  0  0
   -2.3152   -0.0819    0.7157 O   0  0  0  1  0  0  0  0  0  0  0  0
   -3.1951   -0.2361    1.0673 H   0  0  0  1  0  0  0  0  0  0  0  0
   -1.7932   -0.4570   -0.9495 C   0  0  0  1  0  0  0  0  0  0  0  0
   -1.4870   -1.0982   -0.1495 H   0  0  0  1  0  0  0  0  0  0  0  0
   -1.1417   -0.1703   -1.3663 O   0  0  0  1  0  0  0  0  0  0  0  0
   -2.3647   -1.4495   -1.9207 C   0  0  0  1  0  0  0  0  0  0  0  0
   -2.6016   -0.9531   -2.8385 H   0  0  0  1  0  0  0  0  0  0  0  0
   -3.2530   -1.8801   -1.5079 H   0  0  0  1  0  0  0  0  0  0  0  0
   -1.4122   -2.4785   -2.1712 O   0  0  0  1  0  0  0  0  0  0  0  0
   -1.7326   -3.3072   -1.8077 H   0  0  0  1  0  0  0  0  0  0  0  0
  1  2  1  0  0  0  0
  1  3  1  0  0  0  0
  1  4  1  0  0  0  0
  1 18  1  0  0  0  0
  3 24  1  0  0  0  0
  4  5  1  0  0  0  0
  4  6  1  0  0  0  0
  4  8  1  0  0  0  0
  6  7  1  0  0  0  0
  8  9  1  0  0  0  0
  8 10  1  0  0  0  0
  8 12  1  0  0  0  0
 10 11  1  0  0  0  0
 12 13  1  0  0  0  0
 12 14  1  0  0  0  0
 12 16  1  0  0  0  0
 14 15  1  0  0  0  0
 16 17  1  0  0  0  0
 16 18  1  0  0  0  0
 16 19  1  0  0  0  0
 19 20  1  0  0  0  0
 19 21  1  0  0  0  0
 19 22  1  0  0  0  0
 22 23  1  0  0  0  0
 24 25  1  0  0  0  0
 24 26  1  0  0  0  0
 24 40  1  0  0  0  0
 26 27  1  0  0  0  0
 26 28  1  0  0  0  0
 26 30  1  0  0  0  0
 28 29  1  0  0  0  0
 30 31  1  0  0  0  0
 30 32  1  0  0  0  0
 30 34  1  0  0  0  0
 32 33  1  0  0  0  0
 34 35  1  0  0  0  0
 34 36  1  0  0  0  0
 34 38  1  0  0  0  0
 36 37  1  0  0  0  0
 38 39  1  0  0  0  0
 38 40  1  0  0  0  0
 38 41  1  0  0  0  0
 41 42  1  0  0  0  0
 41 43  1  0  0  0  0
 41 44  1  0  0  0  0
 44 45  1  0  0  0  0
M  END
> <ConfClashScore>
0.0622771 

> <ConfOneFourInteractionScore>
-0.967541 

> <ConfScore>
6.97 

> <ConfScorePBest>
0.00850649 

> <ConfTolerance>
0.78923 

$$$$
L16.****
  PyMOL2.4          3D                             0

 45 46  0  0  0  0  0  0  0  0999 V2000
    0.6367    0.4283    0.3266 C   0  0  0  1  0  0  0  0  0  0  0  0
   -0.2696    0.8417   -0.0641 H   0  0  0  1  0  0  0  0  0  0  0  0
    0.3791    0.3374    1.7231 O   0  0  0  1  0  0  0  0  0  0  0  0
    1.2680    0.9588    0.3051 C   0  0  0  1  0  0  0  0  0  0  0  0
    1.3295    1.5188    1.2147 H   0  0  0  1  0  0  0  0  0  0  0  0
    0.8433    1.9550   -0.6273 O   0  0  0  1  0  0  0  0  0  0  0  0
    0.1445    2.4838   -0.2352 H   0  0  0  1  0  0  0  0  0  0  0  0
    2.0140    0.7008    0.0658 C   0  0  0  1  0  0  0  0  0  0  0  0
    2.3928    1.3466   -0.6987 H   0  0  0  1  0  0  0  0  0  0  0  0
    2.9091    0.9868    1.1420 O   0  0  0  1  0  0  0  0  0  0  0  0
    3.5480    1.6459    0.8609 H   0  0  0  1  0  0  0  0  0  0  0  0
    2.1285   -0.0867   -0.1517 C   0  0  0  1  0  0  0  0  0  0  0  0
    2.6539   -0.1545   -1.0814 H   0  0  0  1  0  0  0  0  0  0  0  0
    3.0729   -0.6462    0.7623 O   0  0  0  1  0  0  0  0  0  0  0  0
    3.5703   -1.3407    0.3242 H   0  0  0  1  0  0  0  0  0  0  0  0
    1.4972   -0.6172   -0.1302 C   0  0  0  1  0  0  0  0  0  0  0  0
    1.7753   -1.4827    0.4341 H   0  0  0  1  0  0  0  0  0  0  0  0
    0.7512   -0.3592    0.1091 O   0  0  0  1  0  0  0  0  0  0  0  0
    1.2183   -1.2416   -1.4674 C   0  0  0  1  0  0  0  0  0  0  0  0
    2.1375   -1.5178   -1.9404 H   0  0  0  1  0  0  0  0  0  0  0  0
    0.6898   -0.5504   -2.0901 H   0  0  0  1  0  0  0  0  0  0  0  0
    0.4232   -2.3966   -1.2413 O   0  0  0  1  0  0  0  0  0  0  0  0
    0.5459   -3.0166   -1.9639 H   0  0  0  1  0  0  0  0  0  0  0  0
   -0.8618   -0.1602    2.0887 C   0  0  0  1  0  0  0  0  0  0  0  0
   -0.9395   -1.0488    1.4977 H   0  0  0  1  0  0  0  0  0  0  0  0
   -0.8006   -0.3371    2.8922 C   0  0  0  1  0  0  0  0  0  0  0  0
    0.2205   -0.3905    3.2075 H   0  0  0  1  0  0  0  0  0  0  0  0
   -1.2308   -1.6852    3.0255 O   0  0  0  1  0  0  0  0  0  0  0  0
   -0.4969   -2.2756    2.8404 H   0  0  0  1  0  0  0  0  0  0  0  0
   -1.2674    0.0653    3.4404 C   0  0  0  1  0  0  0  0  0  0  0  0
   -0.6936    0.3969    4.2805 H   0  0  0  1  0  0  0  0  0  0  0  0
   -2.0095   -1.0247    3.9894 O   0  0  0  1  0  0  0  0  0  0  0  0
   -2.4249   -0.7487    4.8096 H   0  0  0  1  0  0  0  0  0  0  0  0
   -1.7955    0.6449    3.1842 C   0  0  0  1  0  0  0  0  0  0  0  0
   -2.7622    0.5029    3.6203 H   0  0  0  1  0  0  0  0  0  0  0  0
   -1.3228    1.7988    3.8820 O   0  0  0  1  0  0  0  0  0  0  0  0
   -2.0550    2.2194    4.3388 H   0  0  0  1  0  0  0  0  0  0  0  0
   -1.8567    0.8217    2.3807 C   0  0  0  1  0  0  0  0  0  0  0  0
   -2.8827    0.7728    2.0810 H   0  0  0  1  0  0  0  0  0  0  0  0
   -1.3899    0.4193    1.8325 O   0  0  0  1  0  0  0  0  0  0  0  0
   -1.5492    2.2704    2.0761 C   0  0  0  1  0  0  0  0  0  0  0  0
   -0.4964    2.4279    2.1839 H   0  0  0  1  0  0  0  0  0  0  0  0
   -2.0760    2.8872    2.7740 H   0  0  0  1  0  0  0  0  0  0  0  0
   -1.9343    2.6423    0.7562 O   0  0  0  1  0  0  0  0  0  0  0  0
   -1.3769    3.3616    0.4505 H   0  0  0  1  0  0  0  0  0  0  0  0
  1  2  1  0  0  0  0
  1  3  1  0  0  0  0
  1  4  1  0  0  0  0
  1 18  1  0  0  0  0
  3 24  1  0  0  0  0
  4  5  1  0  0  0  0
  4  6  1  0  0  0  0
  4  8  1  0  0  0  0
  6  7  1  0  0  0  0
  8  9  1  0  0  0  0
  8 10  1  0  0  0  0
  8 12  1  0  0  0  0
 10 11  1  0  0  0  0
 12 13  1  0  0  0  0
 12 14  1  0  0  0  0
 12 16  1  0  0  0  0
 14 15  1  0  0  0  0
 16 17  1  0  0  0  0
 16 18  1  0  0  0  0
 16 19  1  0  0  0  0
 19 20  1  0  0  0  0
 19 21  1  0  0  0  0
 19 22  1  0  0  0  0
 22 23  1  0  0  0  0
 24 25  1  0  0  0  0
 24 26  1  0  0  0  0
 24 40  1  0  0  0  0
 26 27  1  0  0  0  0
 26 28  1  0  0  0  0
 26 30  1  0  0  0  0
 28 29  1  0  0  0  0
 30 31  1  0  0  0  0
 30 32  1  0  0  0  0
 30 34  1  0  0  0  0
 32 33  1  0  0  0  0
 34 35  1  0  0  0  0
 34 36  1  0  0  0  0
 34 38  1  0  0  0  0
 36 37  1  0  0  0  0
 38 39  1  0  0  0  0
 38 40  1  0  0  0  0
 38 41  1  0  0  0  0
 41 42  1  0  0  0  0
 41 43  1  0  0  0  0
 41 44  1  0  0  0  0
 44 45  1  0  0  0  0
M  END
> <ConfClashScore>
0.0631833 

> <ConfOneFourInteractionScore>
-0.957665 

> <ConfScore>
6.98129 

> <ConfScorePBest>
0.00840348 

> <ConfTolerance>
0.729086 

$$$$
L16.****
  PyMOL2.4          3D                             0

 45 46  0  0  0  0  0  0  0  0999 V2000
    0.6840    0.4722   -0.1255 C   0  0  0  1  0  0  0  0  0  0  0  0
    0.0822    0.6726   -0.9872 H   0  0  0  1  0  0  0  0  0  0  0  0
   -0.0688    1.0868    0.9151 O   0  0  0  1  0  0  0  0  0  0  0  0
    1.3722    0.9268   -0.1339 C   0  0  0  1  0  0  0  0  0  0  0  0
    1.4226    1.4526   -1.0644 H   0  0  0  1  0  0  0  0  0  0  0  0
    1.1491    2.0019    0.7640 O   0  0  0  1  0  0  0  0  0  0  0  0
    0.8246    2.7634    0.2777 H   0  0  0  1  0  0  0  0  0  0  0  0
    2.1025    0.5700    0.0066 C   0  0  0  1  0  0  0  0  0  0  0  0
    2.8365    0.8786   -0.7081 H   0  0  0  1  0  0  0  0  0  0  0  0
    2.5544    1.2088    1.2020 O   0  0  0  1  0  0  0  0  0  0  0  0
    2.1701    0.7701    1.9646 H   0  0  0  1  0  0  0  0  0  0  0  0
    2.1445   -0.2404    0.1553 C   0  0  0  1  0  0  0  0  0  0  0  0
    2.7254   -0.4280    1.0341 H   0  0  0  1  0  0  0  0  0  0  0  0
    3.0059   -0.7149   -0.8648 O   0  0  0  1  0  0  0  0  0  0  0  0
    3.8244   -0.2134   -0.8520 H   0  0  0  1  0  0  0  0  0  0  0  0
    1.4563   -0.6950    0.1637 C   0  0  0  1  0  0  0  0  0  0  0  0
    1.5738   -1.5537   -0.4637 H   0  0  0  1  0  0  0  0  0  0  0  0
    0.7260   -0.3382    0.0232 O   0  0  0  1  0  0  0  0  0  0  0  0
    1.2775   -1.3454    1.5053 C   0  0  0  1  0  0  0  0  0  0  0  0
    0.9843   -0.5982    2.2128 H   0  0  0  1  0  0  0  0  0  0  0  0
    2.2103   -1.7752    1.8055 H   0  0  0  1  0  0  0  0  0  0  0  0
    0.2905   -2.3667    1.4857 O   0  0  0  1  0  0  0  0  0  0  0  0
    0.4808   -2.9827    0.7744 H   0  0  0  1  0  0  0  0  0  0  0  0
   -1.2791    0.3988    1.1609 C   0  0  0  1  0  0  0  0  0  0  0  0
   -1.0394   -0.6136    0.9110 H   0  0  0  1  0  0  0  0  0  0  0  0
   -1.4069    0.5099    1.9684 C   0  0  0  1  0  0  0  0  0  0  0  0
   -1.3656   -0.4165    2.5024 H   0  0  0  1  0  0  0  0  0  0  0  0
   -0.2534    1.1870    2.4490 O   0  0  0  1  0  0  0  0  0  0  0  0
   -0.1088    0.9593    3.3704 H   0  0  0  1  0  0  0  0  0  0  0  0
   -2.0340    0.9794    2.2266 C   0  0  0  1  0  0  0  0  0  0  0  0
   -1.7269    1.6658    2.9878 H   0  0  0  1  0  0  0  0  0  0  0  0
   -2.8216    0.0414    2.9614 O   0  0  0  1  0  0  0  0  0  0  0  0
   -2.5517    0.0487    3.8827 H   0  0  0  1  0  0  0  0  0  0  0  0
   -2.5331    1.3378    1.6763 C   0  0  0  1  0  0  0  0  0  0  0  0
   -2.6626    2.3759    1.9008 H   0  0  0  1  0  0  0  0  0  0  0  0
   -3.8399    0.8176    1.9329 O   0  0  0  1  0  0  0  0  0  0  0  0
   -4.4969    1.3856    1.5238 H   0  0  0  1  0  0  0  0  0  0  0  0
   -2.4054    1.2267    0.8689 C   0  0  0  1  0  0  0  0  0  0  0  0
   -3.3136    0.9294    0.3875 H   0  0  0  1  0  0  0  0  0  0  0  0
   -1.7783    0.7571    0.6107 O   0  0  0  1  0  0  0  0  0  0  0  0
   -2.1230    2.5231    0.1651 C   0  0  0  1  0  0  0  0  0  0  0  0
   -1.2604    2.9903    0.5924 H   0  0  0  1  0  0  0  0  0  0  0  0
   -2.9647    3.1778    0.2538 H   0  0  0  1  0  0  0  0  0  0  0  0
   -1.8841    2.2226   -1.2036 O   0  0  0  1  0  0  0  0  0  0  0  0
   -2.6437    1.7622   -1.5679 H   0  0  0  1  0  0  0  0  0  0  0  0
  1  2  1  0  0  0  0
  1  3  1  0  0  0  0
  1  4  1  0  0  0  0
  1 18  1  0  0  0  0
  3 24  1  0  0  0  0
  4  5  1  0  0  0  0
  4  6  1  0  0  0  0
  4  8  1  0  0  0  0
  6  7  1  0  0  0  0
  8  9  1  0  0  0  0
  8 10  1  0  0  0  0
  8 12  1  0  0  0  0
 10 11  1  0  0  0  0
 12 13  1  0  0  0  0
 12 14  1  0  0  0  0
 12 16  1  0  0  0  0
 14 15  1  0  0  0  0
 16 17  1  0  0  0  0
 16 18  1  0  0  0  0
 16 19  1  0  0  0  0
 19 20  1  0  0  0  0
 19 21  1  0  0  0  0
 19 22  1  0  0  0  0
 22 23  1  0  0  0  0
 24 25  1  0  0  0  0
 24 26  1  0  0  0  0
 24 40  1  0  0  0  0
 26 27  1  0  0  0  0
 26 28  1  0  0  0  0
 26 30  1  0  0  0  0
 28 29  1  0  0  0  0
 30 31  1  0  0  0  0
 30 32  1  0  0  0  0
 30 34  1  0  0  0  0
 32 33  1  0  0  0  0
 34 35  1  0  0  0  0
 34 36  1  0  0  0  0
 34 38  1  0  0  0  0
 36 37  1  0  0  0  0
 38 39  1  0  0  0  0
 38 40  1  0  0  0  0
 38 41  1  0  0  0  0
 41 42  1  0  0  0  0
 41 43  1  0  0  0  0
 41 44  1  0  0  0  0
 44 45  1  0  0  0  0
M  END
> <ConfClashScore>
0.0637885 

> <ConfOneFourInteractionScore>
-0.970689 

> <ConfScore>
7.0023 

> <ConfScorePBest>
0.00830048 

> <ConfTolerance>
0.732593 

$$$$
L16.****
  PyMOL2.4          3D                             0

 45 46  0  0  0  0  0  0  0  0999 V2000
    0.6423    0.4196   -0.0514 C   0  0  0  1  0  0  0  0  0  0  0  0
    0.2875    0.9818   -0.8899 H   0  0  0  1  0  0  0  0  0  0  0  0
   -0.4967    0.4115    0.8014 O   0  0  0  1  0  0  0  0  0  0  0  0
    1.2036    0.8518    0.3711 C   0  0  0  1  0  0  0  0  0  0  0  0
    0.7552    1.3091    1.2282 H   0  0  0  1  0  0  0  0  0  0  0  0
    1.4459    1.9839   -0.4655 O   0  0  0  1  0  0  0  0  0  0  0  0
    1.1891    2.7850   -0.0030 H   0  0  0  1  0  0  0  0  0  0  0  0
    1.9233    0.5036    0.5740 C   0  0  0  1  0  0  0  0  0  0  0  0
    2.1479    0.6634    1.6078 H   0  0  0  1  0  0  0  0  0  0  0  0
    2.8938    1.3309   -0.0702 O   0  0  0  1  0  0  0  0  0  0  0  0
    3.6474    1.4534    0.5118 H   0  0  0  1  0  0  0  0  0  0  0  0
    2.0815   -0.2758    0.3546 C   0  0  0  1  0  0  0  0  0  0  0  0
    2.4013   -0.8349    1.2091 H   0  0  0  1  0  0  0  0  0  0  0  0
    3.2717   -0.2695   -0.4366 O   0  0  0  1  0  0  0  0  0  0  0  0
    3.0834    0.1156   -1.2956 H   0  0  0  1  0  0  0  0  0  0  0  0
    1.5202   -0.7080   -0.0678 C   0  0  0  1  0  0  0  0  0  0  0  0
    1.9742   -1.1265   -0.9417 H   0  0  0  1  0  0  0  0  0  0  0  0
    0.8004   -0.3598   -0.2707 O   0  0  0  1  0  0  0  0  0  0  0  0
    1.0910   -1.9600    0.6465 C   0  0  0  1  0  0  0  0  0  0  0  0
    0.3835   -2.4792    0.0343 H   0  0  0  1  0  0  0  0  0  0  0  0
    0.6293   -1.6861    1.5720 H   0  0  0  1  0  0  0  0  0  0  0  0
    2.1816   -2.8295    0.9206 O   0  0  0  1  0  0  0  0  0  0  0  0
    2.3385   -2.8582    1.8673 H   0  0  0  1  0  0  0  0  0  0  0  0
   -1.6786    0.0782    0.1533 C   0  0  0  1  0  0  0  0  0  0  0  0
   -1.4485   -0.8707   -0.2844 H   0  0  0  1  0  0  0  0  0  0  0  0
   -2.2522    0.0128    0.7427 C   0  0  0  1  0  0  0  0  0  0  0  0
   -1.8204   -0.1369    1.7102 H   0  0  0  1  0  0  0  0  0  0  0  0
   -2.8492   -1.2592    0.4687 O   0  0  0  1  0  0  0  0  0  0  0  0
   -2.5820   -1.8900    1.1412 H   0  0  0  1  0  0  0  0  0  0  0  0
   -2.8851    0.5413    0.7634 C   0  0  0  1  0  0  0  0  0  0  0  0
   -2.9711    0.9664    1.7416 H   0  0  0  1  0  0  0  0  0  0  0  0
   -4.0897   -0.2220    0.6833 O   0  0  0  1  0  0  0  0  0  0  0  0
   -4.8419    0.3463    0.8644 H   0  0  0  1  0  0  0  0  0  0  0  0
   -2.9438    1.1353    0.1941 C   0  0  0  1  0  0  0  0  0  0  0  0
   -3.9281    1.1687   -0.2242 H   0  0  0  1  0  0  0  0  0  0  0  0
   -2.8713    2.3877    0.8784 O   0  0  0  1  0  0  0  0  0  0  0  0
   -3.2500    3.0764    0.3271 H   0  0  0  1  0  0  0  0  0  0  0  0
   -2.3703    1.2007   -0.3953 C   0  0  0  1  0  0  0  0  0  0  0  0
   -2.0205    2.2092   -0.4691 H   0  0  0  1  0  0  0  0  0  0  0  0
   -1.7373    0.6721   -0.4161 O   0  0  0  1  0  0  0  0  0  0  0  0
   -3.0026    1.0160   -1.7450 C   0  0  0  1  0  0  0  0  0  0  0  0
   -2.3313    1.3444   -2.5108 H   0  0  0  1  0  0  0  0  0  0  0  0
   -3.9118    1.5771   -1.8023 H   0  0  0  1  0  0  0  0  0  0  0  0
   -3.2769   -0.3700   -1.9019 O   0  0  0  1  0  0  0  0  0  0  0  0
   -3.2857   -0.5912   -2.8360 H   0  0  0  1  0  0  0  0  0  0  0  0
  1  2  1  0  0  0  0
  1  3  1  0  0  0  0
  1  4  1  0  0  0  0
  1 18  1  0  0  0  0
  3 24  1  0  0  0  0
  4  5  1  0  0  0  0
  4  6  1  0  0  0  0
  4  8  1  0  0  0  0
  6  7  1  0  0  0  0
  8  9  1  0  0  0  0
  8 10  1  0  0  0  0
  8 12  1  0  0  0  0
 10 11  1  0  0  0  0
 12 13  1  0  0  0  0
 12 14  1  0  0  0  0
 12 16  1  0  0  0  0
 14 15  1  0  0  0  0
 16 17  1  0  0  0  0
 16 18  1  0  0  0  0
 16 19  1  0  0  0  0
 19 20  1  0  0  0  0
 19 21  1  0  0  0  0
 19 22  1  0  0  0  0
 22 23  1  0  0  0  0
 24 25  1  0  0  0  0
 24 26  1  0  0  0  0
 24 40  1  0  0  0  0
 26 27  1  0  0  0  0
 26 28  1  0  0  0  0
 26 30  1  0  0  0  0
 28 29  1  0  0  0  0
 30 31  1  0  0  0  0
 30 32  1  0  0  0  0
 30 34  1  0  0  0  0
 32 33  1  0  0  0  0
 34 35  1  0  0  0  0
 34 36  1  0  0  0  0
 34 38  1  0  0  0  0
 36 37  1  0  0  0  0
 38 39  1  0  0  0  0
 38 40  1  0  0  0  0
 38 41  1  0  0  0  0
 41 42  1  0  0  0  0
 41 43  1  0  0  0  0
 41 44  1  0  0  0  0
 44 45  1  0  0  0  0
M  END
> <ConfClashScore>
0.0629679 

> <ConfOneFourInteractionScore>
-0.970689 

> <ConfScore>
7.00423 

> <ConfScorePBest>
0.00819748 

> <ConfTolerance>
0.768361 

$$$$
L16.****
  PyMOL2.4          3D                             0

 45 46  0  0  0  0  0  0  0  0999 V2000
    0.6081    0.4627   -0.0707 C   0  0  0  1  0  0  0  0  0  0  0  0
    0.0306    0.8907   -0.8633 H   0  0  0  1  0  0  0  0  0  0  0  0
   -0.2525    0.6376    1.0489 O   0  0  0  1  0  0  0  0  0  0  0  0
    1.2593    0.9381    0.1032 C   0  0  0  1  0  0  0  0  0  0  0  0
    1.2802    1.7896   -0.5444 H   0  0  0  1  0  0  0  0  0  0  0  0
    1.0134    1.5490    1.3708 O   0  0  0  1  0  0  0  0  0  0  0  0
    0.6373    2.4223    1.2381 H   0  0  0  1  0  0  0  0  0  0  0  0
    2.0107    0.6023    0.1582 C   0  0  0  1  0  0  0  0  0  0  0  0
    2.5339    0.9426    1.0273 H   0  0  0  1  0  0  0  0  0  0  0  0
    2.8003    1.1410   -0.9038 O   0  0  0  1  0  0  0  0  0  0  0  0
    3.5543    1.6085   -0.5371 H   0  0  0  1  0  0  0  0  0  0  0  0
    2.1107   -0.2079    0.0394 C   0  0  0  1  0  0  0  0  0  0  0  0
    2.9481   -0.4234   -0.5909 H   0  0  0  1  0  0  0  0  0  0  0  0
    2.5635   -0.6493    1.3206 O   0  0  0  1  0  0  0  0  0  0  0  0
    3.5175   -0.5555    1.3731 H   0  0  0  1  0  0  0  0  0  0  0  0
    1.4595   -0.6834   -0.1345 C   0  0  0  1  0  0  0  0  0  0  0  0
    1.4471   -1.5611    0.4772 H   0  0  0  1  0  0  0  0  0  0  0  0
    0.7081   -0.3476   -0.1895 O   0  0  0  1  0  0  0  0  0  0  0  0
    1.6330   -1.2813   -1.5106 C   0  0  0  1  0  0  0  0  0  0  0  0
    0.7671   -1.8655   -1.7427 H   0  0  0  1  0  0  0  0  0  0  0  0
    2.4978   -1.9114   -1.5046 H   0  0  0  1  0  0  0  0  0  0  0  0
    1.7975   -0.2911   -2.5155 O   0  0  0  1  0  0  0  0  0  0  0  0
    1.5605   -0.6592   -3.3699 H   0  0  0  1  0  0  0  0  0  0  0  0
   -1.6173    0.6527    0.7168 C   0  0  0  1  0  0  0  0  0  0  0  0
   -1.9063    1.6448    0.9945 H   0  0  0  1  0  0  0  0  0  0  0  0
   -1.9395    0.0949    1.2322 C   0  0  0  1  0  0  0  0  0  0  0  0
   -2.5088    0.5592    2.0102 H   0  0  0  1  0  0  0  0  0  0  0  0
   -0.7870   -0.3599    1.9287 O   0  0  0  1  0  0  0  0  0  0  0  0
   -1.0257   -0.5846    2.8310 H   0  0  0  1  0  0  0  0  0  0  0  0
   -2.3212   -0.5722    0.9327 C   0  0  0  1  0  0  0  0  0  0  0  0
   -1.9640   -1.4609    1.4098 H   0  0  0  1  0  0  0  0  0  0  0  0
   -3.6635   -0.4977    1.4191 O   0  0  0  1  0  0  0  0  0  0  0  0
   -3.7463   -1.0294    2.2141 H   0  0  0  1  0  0  0  0  0  0  0  0
   -2.3803   -0.6808    0.1172 C   0  0  0  1  0  0  0  0  0  0  0  0
   -3.3705   -0.9630   -0.1738 H   0  0  0  1  0  0  0  0  0  0  0  0
   -1.6219   -1.8407   -0.2164 O   0  0  0  1  0  0  0  0  0  0  0  0
   -0.7239   -1.7407    0.1079 H   0  0  0  1  0  0  0  0  0  0  0  0
   -2.0581   -0.1230   -0.3982 C   0  0  0  1  0  0  0  0  0  0  0  0
   -1.3698   -0.6317   -1.0403 H   0  0  0  1  0  0  0  0  0  0  0  0
   -1.6764    0.5441   -0.0987 O   0  0  0  1  0  0  0  0  0  0  0  0
   -3.0771    0.3138   -1.4239 C   0  0  0  1  0  0  0  0  0  0  0  0
   -2.6638    1.0625   -2.0669 H   0  0  0  1  0  0  0  0  0  0  0  0
   -3.9513    0.6995   -0.9424 H   0  0  0  1  0  0  0  0  0  0  0  0
   -3.3969   -0.8718   -2.1728 O   0  0  0  1  0  0  0  0  0  0  0  0
   -2.8409   -0.9171   -2.9541 H   0  0  0  1  0  0  0  0  0  0  0  0
  1  2  1  0  0  0  0
  1  3  1  0  0  0  0
  1  4  1  0  0  0  0
  1 18  1  0  0  0  0
  3 24  1  0  0  0  0
  4  5  1  0  0  0  0
  4  6  1  0  0  0  0
  4  8  1  0  0  0  0
  6  7  1  0  0  0  0
  8  9  1  0  0  0  0
  8 10  1  0  0  0  0
  8 12  1  0  0  0  0
 10 11  1  0  0  0  0
 12 13  1  0  0  0  0
 12 14  1  0  0  0  0
 12 16  1  0  0  0  0
 14 15  1  0  0  0  0
 16 17  1  0  0  0  0
 16 18  1  0  0  0  0
 16 19  1  0  0  0  0
 19 20  1  0  0  0  0
 19 21  1  0  0  0  0
 19 22  1  0  0  0  0
 22 23  1  0  0  0  0
 24 25  1  0  0  0  0
 24 26  1  0  0  0  0
 24 40  1  0  0  0  0
 26 27  1  0  0  0  0
 26 28  1  0  0  0  0
 26 30  1  0  0  0  0
 28 29  1  0  0  0  0
 30 31  1  0  0  0  0
 30 32  1  0  0  0  0
 30 34  1  0  0  0  0
 32 33  1  0  0  0  0
 34 35  1  0  0  0  0
 34 36  1  0  0  0  0
 34 38  1  0  0  0  0
 36 37  1  0  0  0  0
 38 39  1  0  0  0  0
 38 40  1  0  0  0  0
 38 41  1  0  0  0  0
 41 42  1  0  0  0  0
 41 43  1  0  0  0  0
 41 44  1  0  0  0  0
 44 45  1  0  0  0  0
M  END
> <ConfClashScore>
0.0613396 

> <ConfOneFourInteractionScore>
-0.96156 

> <ConfScore>
7.02371 

> <ConfScorePBest>
0.00809448 

> <ConfTolerance>
0.881361 

$$$$
L16.****
  PyMOL2.4          3D                             0

 45 46  0  0  0  0  0  0  0  0999 V2000
    0.7564    0.4395   -0.3038 C   0  0  0  1  0  0  0  0  0  0  0  0
    0.3507    0.7014   -1.2586 H   0  0  0  1  0  0  0  0  0  0  0  0
   -0.2545    0.8746    0.5982 O   0  0  0  1  0  0  0  0  0  0  0  0
    1.4146    0.8984   -0.1126 C   0  0  0  1  0  0  0  0  0  0  0  0
    1.6627    1.5604   -0.9158 H   0  0  0  1  0  0  0  0  0  0  0  0
    0.9679    1.8107    0.8917 O   0  0  0  1  0  0  0  0  0  0  0  0
    0.6952    2.6334    0.4789 H   0  0  0  1  0  0  0  0  0  0  0  0
    2.0921    0.5393    0.1912 C   0  0  0  1  0  0  0  0  0  0  0  0
    2.9786    0.8936   -0.2921 H   0  0  0  1  0  0  0  0  0  0  0  0
    2.1808    1.1522    1.4788 O   0  0  0  1  0  0  0  0  0  0  0  0
    3.0549    1.5324    1.5932 H   0  0  0  1  0  0  0  0  0  0  0  0
    2.1115   -0.2777    0.3037 C   0  0  0  1  0  0  0  0  0  0  0  0
    2.5289   -0.5451    1.2520 H   0  0  0  1  0  0  0  0  0  0  0  0
    3.0942   -0.7578   -0.6157 O   0  0  0  1  0  0  0  0  0  0  0  0
    3.3518   -0.0483   -1.2088 H   0  0  0  1  0  0  0  0  0  0  0  0
    1.4534   -0.7367    0.1126 C   0  0  0  1  0  0  0  0  0  0  0  0
    1.7430   -1.5630   -0.5024 H   0  0  0  1  0  0  0  0  0  0  0  0
    0.7758   -0.3776   -0.1912 O   0  0  0  1  0  0  0  0  0  0  0  0
    0.9050   -1.4545    1.3125 C   0  0  0  1  0  0  0  0  0  0  0  0
    1.6286   -2.1493    1.6847 H   0  0  0  1  0  0  0  0  0  0  0  0
    0.0103   -1.9781    1.0476 H   0  0  0  1  0  0  0  0  0  0  0  0
    0.6192   -0.4757    2.3013 O   0  0  0  1  0  0  0  0  0  0  0  0
   -0.3026   -0.5422    2.5610 H   0  0  0  1  0  0  0  0  0  0  0  0
   -1.5546    0.4275    0.2572 C   0  0  0  1  0  0  0  0  0  0  0  0
   -1.3792   -0.5874   -0.0327 H   0  0  0  1  0  0  0  0  0  0  0  0
   -1.9480    0.4725    0.9809 C   0  0  0  1  0  0  0  0  0  0  0  0
   -1.2429    0.6510    1.7657 H   0  0  0  1  0  0  0  0  0  0  0  0
   -2.4021   -0.8346    1.3057 O   0  0  0  1  0  0  0  0  0  0  0  0
   -1.6865   -1.3315    1.7088 H   0  0  0  1  0  0  0  0  0  0  0  0
   -2.5960    0.9754    1.0682 C   0  0  0  1  0  0  0  0  0  0  0  0
   -2.5248    1.5554    1.9645 H   0  0  0  1  0  0  0  0  0  0  0  0
   -3.6787    0.0922    1.3645 O   0  0  0  1  0  0  0  0  0  0  0  0
   -3.8559    0.1076    2.3079 H   0  0  0  1  0  0  0  0  0  0  0  0
   -2.8501    1.4332    0.4308 C   0  0  0  1  0  0  0  0  0  0  0  0
   -3.0293    2.4476    0.7202 H   0  0  0  1  0  0  0  0  0  0  0  0
   -4.1650    0.9691    0.1182 O   0  0  0  1  0  0  0  0  0  0  0  0
   -4.8137    1.5280    0.5521 H   0  0  0  1  0  0  0  0  0  0  0  0
   -2.4567    1.3882   -0.2929 C   0  0  0  1  0  0  0  0  0  0  0  0
   -3.1684    1.1751   -1.0629 H   0  0  0  1  0  0  0  0  0  0  0  0
   -1.8087    0.8853   -0.3802 O   0  0  0  1  0  0  0  0  0  0  0  0
   -1.9282    2.7103   -0.7772 C   0  0  0  1  0  0  0  0  0  0  0  0
   -1.2997    3.1276   -0.0184 H   0  0  0  1  0  0  0  0  0  0  0  0
   -2.7549    3.3656   -0.9565 H   0  0  0  1  0  0  0  0  0  0  0  0
   -1.1751    2.5875   -1.9765 O   0  0  0  1  0  0  0  0  0  0  0  0
   -1.6314    3.0406   -2.6893 H   0  0  0  1  0  0  0  0  0  0  0  0
  1  2  1  0  0  0  0
  1  3  1  0  0  0  0
  1  4  1  0  0  0  0
  1 18  1  0  0  0  0
  3 24  1  0  0  0  0
  4  5  1  0  0  0  0
  4  6  1  0  0  0  0
  4  8  1  0  0  0  0
  6  7  1  0  0  0  0
  8  9  1  0  0  0  0
  8 10  1  0  0  0  0
  8 12  1  0  0  0  0
 10 11  1  0  0  0  0
 12 13  1  0  0  0  0
 12 14  1  0  0  0  0
 12 16  1  0  0  0  0
 14 15  1  0  0  0  0
 16 17  1  0  0  0  0
 16 18  1  0  0  0  0
 16 19  1  0  0  0  0
 19 20  1  0  0  0  0
 19 21  1  0  0  0  0
 19 22  1  0  0  0  0
 22 23  1  0  0  0  0
 24 25  1  0  0  0  0
 24 26  1  0  0  0  0
 24 40  1  0  0  0  0
 26 27  1  0  0  0  0
 26 28  1  0  0  0  0
 26 30  1  0  0  0  0
 28 29  1  0  0  0  0
 30 31  1  0  0  0  0
 30 32  1  0  0  0  0
 30 34  1  0  0  0  0
 32 33  1  0  0  0  0
 34 35  1  0  0  0  0
 34 36  1  0  0  0  0
 34 38  1  0  0  0  0
 36 37  1  0  0  0  0
 38 39  1  0  0  0  0
 38 40  1  0  0  0  0
 38 41  1  0  0  0  0
 41 42  1  0  0  0  0
 41 43  1  0  0  0  0
 41 44  1  0  0  0  0
 44 45  1  0  0  0  0
M  END
> <ConfClashScore>
0.0624702 

> <ConfOneFourInteractionScore>
-0.980879 

> <ConfScore>
7.02811 

> <ConfScorePBest>
0.00799148 

> <ConfTolerance>
0.789184 

$$$$
L16.****
  PyMOL2.4          3D                             0

 45 46  0  0  0  0  0  0  0  0999 V2000
    0.5558    0.4220    0.0255 C   0  0  0  1  0  0  0  0  0  0  0  0
   -0.1665    0.7553    0.7411 H   0  0  0  1  0  0  0  0  0  0  0  0
   -0.1038    0.6790   -1.2088 O   0  0  0  1  0  0  0  0  0  0  0  0
    1.2037    0.9318   -0.0012 C   0  0  0  1  0  0  0  0  0  0  0  0
    1.0989    1.6646   -0.7738 H   0  0  0  1  0  0  0  0  0  0  0  0
    1.0531    1.7172    1.1862 O   0  0  0  1  0  0  0  0  0  0  0  0
    0.9749    2.6443    0.9495 H   0  0  0  1  0  0  0  0  0  0  0  0
    1.9692    0.6259    0.0270 C   0  0  0  1  0  0  0  0  0  0  0  0
    2.5935    1.0622   -0.7245 H   0  0  0  1  0  0  0  0  0  0  0  0
    2.5439    1.1368    1.2312 O   0  0  0  1  0  0  0  0  0  0  0  0
    3.4834    0.9404    1.2464 H   0  0  0  1  0  0  0  0  0  0  0  0
    2.0867   -0.1888    0.0818 C   0  0  0  1  0  0  0  0  0  0  0  0
    2.7376   -0.3989    0.9047 H   0  0  0  1  0  0  0  0  0  0  0  0
    2.9113   -0.5658   -1.0224 O   0  0  0  1  0  0  0  0  0  0  0  0
    3.7720   -0.1494   -0.9364 H   0  0  0  1  0  0  0  0  0  0  0  0
    1.4388   -0.6986    0.1084 C   0  0  0  1  0  0  0  0  0  0  0  0
    1.5590   -1.5268   -0.5584 H   0  0  0  1  0  0  0  0  0  0  0  0
    0.6733   -0.3927    0.0802 O   0  0  0  1  0  0  0  0  0  0  0  0
    1.4781   -1.3834    1.4557 C   0  0  0  1  0  0  0  0  0  0  0  0
    2.3722   -1.9680    1.5177 H   0  0  0  1  0  0  0  0  0  0  0  0
    0.6256   -2.0246    1.5399 H   0  0  0  1  0  0  0  0  0  0  0  0
    1.4618   -0.4596    2.5344 O   0  0  0  1  0  0  0  0  0  0  0  0
    2.2354   -0.5973    3.0860 H   0  0  0  1  0  0  0  0  0  0  0  0
   -1.2569   -0.1116   -1.4136 C   0  0  0  1  0  0  0  0  0  0  0  0
   -0.8726   -1.1035   -1.2982 H   0  0  0  1  0  0  0  0  0  0  0  0
   -1.4495    0.0422   -2.2009 C   0  0  0  1  0  0  0  0  0  0  0  0
   -1.2245   -0.7920   -2.8321 H   0  0  0  1  0  0  0  0  0  0  0  0
   -0.5166    1.0188   -2.6438 O   0  0  0  1  0  0  0  0  0  0  0  0
    0.2096    0.5855   -3.0981 H   0  0  0  1  0  0  0  0  0  0  0  0
   -2.1788    0.3782   -2.3896 C   0  0  0  1  0  0  0  0  0  0  0  0
   -2.0090    1.2576   -2.9751 H   0  0  0  1  0  0  0  0  0  0  0  0
   -2.8337   -0.4453   -3.3344 O   0  0  0  1  0  0  0  0  0  0  0  0
   -2.2942   -0.5172   -4.1253 H   0  0  0  1  0  0  0  0  0  0  0  0
   -2.7152    0.5602   -1.7901 C   0  0  0  1  0  0  0  0  0  0  0  0
   -3.0421    1.5740   -1.8917 H   0  0  0  1  0  0  0  0  0  0  0  0
   -3.9176   -0.1522   -2.0883 O   0  0  0  1  0  0  0  0  0  0  0  0
   -3.8630   -1.0392   -1.7251 H   0  0  0  1  0  0  0  0  0  0  0  0
   -2.5226    0.4064   -1.0028 C   0  0  0  1  0  0  0  0  0  0  0  0
   -3.3069   -0.1610   -0.5468 H   0  0  0  1  0  0  0  0  0  0  0  0
   -1.7933    0.0704   -0.8140 O   0  0  0  1  0  0  0  0  0  0  0  0
   -2.5480    1.6413   -0.1483 C   0  0  0  1  0  0  0  0  0  0  0  0
   -1.8794    2.3753   -0.5473 H   0  0  0  1  0  0  0  0  0  0  0  0
   -2.2566    1.3991    0.8524 H   0  0  0  1  0  0  0  0  0  0  0  0
   -3.8789    2.1405   -0.1589 O   0  0  0  1  0  0  0  0  0  0  0  0
   -3.8742    3.0706    0.0786 H   0  0  0  1  0  0  0  0  0  0  0  0
  1  2  1  0  0  0  0
  1  3  1  0  0  0  0
  1  4  1  0  0  0  0
  1 18  1  0  0  0  0
  3 24  1  0  0  0  0
  4  5  1  0  0  0  0
  4  6  1  0  0  0  0
  4  8  1  0  0  0  0
  6  7  1  0  0  0  0
  8  9  1  0  0  0  0
  8 10  1  0  0  0  0
  8 12  1  0  0  0  0
 10 11  1  0  0  0  0
 12 13  1  0  0  0  0
 12 14  1  0  0  0  0
 12 16  1  0  0  0  0
 14 15  1  0  0  0  0
 16 17  1  0  0  0  0
 16 18  1  0  0  0  0
 16 19  1  0  0  0  0
 19 20  1  0  0  0  0
 19 21  1  0  0  0  0
 19 22  1  0  0  0  0
 22 23  1  0  0  0  0
 24 25  1  0  0  0  0
 24 26  1  0  0  0  0
 24 40  1  0  0  0  0
 26 27  1  0  0  0  0
 26 28  1  0  0  0  0
 26 30  1  0  0  0  0
 28 29  1  0  0  0  0
 30 31  1  0  0  0  0
 30 32  1  0  0  0  0
 30 34  1  0  0  0  0
 32 33  1  0  0  0  0
 34 35  1  0  0  0  0
 34 36  1  0  0  0  0
 34 38  1  0  0  0  0
 36 37  1  0  0  0  0
 38 39  1  0  0  0  0
 38 40  1  0  0  0  0
 38 41  1  0  0  0  0
 41 42  1  0  0  0  0
 41 43  1  0  0  0  0
 41 44  1  0  0  0  0
 44 45  1  0  0  0  0
M  END
> <ConfClashScore>
0.0633519 

> <ConfOneFourInteractionScore>
-0.967436 

> <ConfScore>
7.03949 

> <ConfScorePBest>
0.00788848 

> <ConfTolerance>
0.830494 

$$$$
L16.****
  PyMOL2.4          3D                             0

 45 46  0  0  0  0  0  0  0  0999 V2000
    0.7291    0.6014   -0.2656 C   0  0  0  1  0  0  0  0  0  0  0  0
   -0.2427    0.8445    0.1104 H   0  0  0  1  0  0  0  0  0  0  0  0
    0.6906    1.1708   -1.5691 O   0  0  0  1  0  0  0  0  0  0  0  0
    1.3091    1.0354    0.1288 C   0  0  0  1  0  0  0  0  0  0  0  0
    1.5805    1.9170   -0.4135 H   0  0  0  1  0  0  0  0  0  0  0  0
    0.6088    1.5730    1.2537 O   0  0  0  1  0  0  0  0  0  0  0  0
    0.5086    0.8928    1.9237 H   0  0  0  1  0  0  0  0  0  0  0  0
    1.9707    0.6519    0.4380 C   0  0  0  1  0  0  0  0  0  0  0  0
    2.1484    0.9508    1.4499 H   0  0  0  1  0  0  0  0  0  0  0  0
    3.0667    1.2615   -0.2465 O   0  0  0  1  0  0  0  0  0  0  0  0
    3.7464    1.5023    0.3872 H   0  0  0  1  0  0  0  0  0  0  0  0
    2.0522   -0.1646    0.3528 C   0  0  0  1  0  0  0  0  0  0  0  0
    2.3374   -0.6310    1.2726 H   0  0  0  1  0  0  0  0  0  0  0  0
    3.2502   -0.2615   -0.4219 O   0  0  0  1  0  0  0  0  0  0  0  0
    3.0250   -0.4152   -1.3424 H   0  0  0  1  0  0  0  0  0  0  0  0
    1.4722   -0.5986   -0.0417 C   0  0  0  1  0  0  0  0  0  0  0  0
    1.9122   -1.2455   -0.7716 H   0  0  0  1  0  0  0  0  0  0  0  0
    0.8106   -0.2152   -0.3508 O   0  0  0  1  0  0  0  0  0  0  0  0
    0.8870   -1.5948    0.9180 C   0  0  0  1  0  0  0  0  0  0  0  0
    1.6765   -2.0009    1.5152 H   0  0  0  1  0  0  0  0  0  0  0  0
    0.4231   -2.3796    0.3577 H   0  0  0  1  0  0  0  0  0  0  0  0
   -0.0827   -1.0143    1.7781 O   0  0  0  1  0  0  0  0  0  0  0  0
   -0.6990   -1.6905    2.0690 H   0  0  0  1  0  0  0  0  0  0  0  0
   -0.4848    0.9685   -2.3007 C   0  0  0  1  0  0  0  0  0  0  0  0
   -0.3190   -0.0047   -2.7135 H   0  0  0  1  0  0  0  0  0  0  0  0
   -0.4464    1.5395   -2.8949 C   0  0  0  1  0  0  0  0  0  0  0  0
    0.5109    2.0175   -2.9002 H   0  0  0  1  0  0  0  0  0  0  0  0
   -0.4187    0.8159   -4.1179 O   0  0  0  1  0  0  0  0  0  0  0  0
    0.4341    0.9360   -4.5420 H   0  0  0  1  0  0  0  0  0  0  0  0
   -1.0510    2.0951   -2.9733 C   0  0  0  1  0  0  0  0  0  0  0  0
   -0.6619    3.0856   -3.0849 H   0  0  0  1  0  0  0  0  0  0  0  0
   -1.6336    1.8528   -4.2548 O   0  0  0  1  0  0  0  0  0  0  0  0
   -2.0117    2.6673   -4.5941 H   0  0  0  1  0  0  0  0  0  0  0  0
   -1.6940    2.0790   -2.4569 C   0  0  0  1  0  0  0  0  0  0  0  0
   -2.6182    2.1373   -2.9930 H   0  0  0  1  0  0  0  0  0  0  0  0
   -1.7150    3.2901   -1.6988 O   0  0  0  1  0  0  0  0  0  0  0  0
   -2.6210    3.5083   -1.4684 H   0  0  0  1  0  0  0  0  0  0  0  0
   -1.7323    1.5079   -1.8627 C   0  0  0  1  0  0  0  0  0  0  0  0
   -1.9050    1.9839   -0.9201 H   0  0  0  1  0  0  0  0  0  0  0  0
   -1.1277    0.9523   -1.7843 O   0  0  0  1  0  0  0  0  0  0  0  0
   -2.9655    0.6417   -1.9642 C   0  0  0  1  0  0  0  0  0  0  0  0
   -3.8358    1.2636   -1.9913 H   0  0  0  1  0  0  0  0  0  0  0  0
   -3.0159   -0.0063   -1.1141 H   0  0  0  1  0  0  0  0  0  0  0  0
   -2.9057   -0.1392   -3.1505 O   0  0  0  1  0  0  0  0  0  0  0  0
   -3.4771   -0.9052   -3.0591 H   0  0  0  1  0  0  0  0  0  0  0  0
  1  2  1  0  0  0  0
  1  3  1  0  0  0  0
  1  4  1  0  0  0  0
  1 18  1  0  0  0  0
  3 24  1  0  0  0  0
  4  5  1  0  0  0  0
  4  6  1  0  0  0  0
  4  8  1  0  0  0  0
  6  7  1  0  0  0  0
  8  9  1  0  0  0  0
  8 10  1  0  0  0  0
  8 12  1  0  0  0  0
 10 11  1  0  0  0  0
 12 13  1  0  0  0  0
 12 14  1  0  0  0  0
 12 16  1  0  0  0  0
 14 15  1  0  0  0  0
 16 17  1  0  0  0  0
 16 18  1  0  0  0  0
 16 19  1  0  0  0  0
 19 20  1  0  0  0  0
 19 21  1  0  0  0  0
 19 22  1  0  0  0  0
 22 23  1  0  0  0  0
 24 25  1  0  0  0  0
 24 26  1  0  0  0  0
 24 40  1  0  0  0  0
 26 27  1  0  0  0  0
 26 28  1  0  0  0  0
 26 30  1  0  0  0  0
 28 29  1  0  0  0  0
 30 31  1  0  0  0  0
 30 32  1  0  0  0  0
 30 34  1  0  0  0  0
 32 33  1  0  0  0  0
 34 35  1  0  0  0  0
 34 36  1  0  0  0  0
 34 38  1  0  0  0  0
 36 37  1  0  0  0  0
 38 39  1  0  0  0  0
 38 40  1  0  0  0  0
 38 41  1  0  0  0  0
 41 42  1  0  0  0  0
 41 43  1  0  0  0  0
 41 44  1  0  0  0  0
 44 45  1  0  0  0  0
M  END
> <ConfClashScore>
0.0626564 

> <ConfOneFourInteractionScore>
-0.980249 

> <ConfScore>
7.05053 

> <ConfScorePBest>
0.00778548 

> <ConfTolerance>
0.88337 

$$$$
L16.****
  PyMOL2.4          3D                             0

 45 46  0  0  0  0  0  0  0  0999 V2000
    0.6586    0.3658    0.3125 C   0  0  0  1  0  0  0  0  0  0  0  0
   -0.3334    0.5208   -0.0571 H   0  0  0  1  0  0  0  0  0  0  0  0
    0.5741    0.8414    1.6509 O   0  0  0  1  0  0  0  0  0  0  0  0
    1.2041    0.8670   -0.0502 C   0  0  0  1  0  0  0  0  0  0  0  0
    0.7278    1.4383   -0.8194 H   0  0  0  1  0  0  0  0  0  0  0  0
    1.5399    1.8784    0.8902 O   0  0  0  1  0  0  0  0  0  0  0  0
    0.9323    2.6160    0.7982 H   0  0  0  1  0  0  0  0  0  0  0  0
    1.9224    0.5658   -0.3216 C   0  0  0  1  0  0  0  0  0  0  0  0
    2.1390    0.9027   -1.3138 H   0  0  0  1  0  0  0  0  0  0  0  0
    2.9309    1.2234    0.4477 O   0  0  0  1  0  0  0  0  0  0  0  0
    3.2587    1.9843   -0.0373 H   0  0  0  1  0  0  0  0  0  0  0  0
    2.0951   -0.2358   -0.2303 C   0  0  0  1  0  0  0  0  0  0  0  0
    2.4585   -0.6581   -1.1437 H   0  0  0  1  0  0  0  0  0  0  0  0
    3.2687   -0.2357    0.5846 O   0  0  0  1  0  0  0  0  0  0  0  0
    3.0363   -0.4876    1.4813 H   0  0  0  1  0  0  0  0  0  0  0  0
    1.5496   -0.7370    0.1325 C   0  0  0  1  0  0  0  0  0  0  0  0
    2.0224   -1.3291    0.8880 H   0  0  0  1  0  0  0  0  0  0  0  0
    0.8313   -0.4358    0.4038 O   0  0  0  1  0  0  0  0  0  0  0  0
    1.0468   -1.8098   -0.8043 C   0  0  0  1  0  0  0  0  0  0  0  0
    1.8641   -2.3805   -1.1931 H   0  0  0  1  0  0  0  0  0  0  0  0
    0.4990   -1.3735   -1.6134 H   0  0  0  1  0  0  0  0  0  0  0  0
    0.1872   -2.6416   -0.0055 O   0  0  0  1  0  0  0  0  0  0  0  0
   -0.7248   -2.5133   -0.2763 H   0  0  0  1  0  0  0  0  0  0  0  0
   -0.7085    0.7954    2.1811 C   0  0  0  1  0  0  0  0  0  0  0  0
   -1.1261   -0.0720    1.7140 H   0  0  0  1  0  0  0  0  0  0  0  0
   -0.6163    0.6912    2.9943 C   0  0  0  1  0  0  0  0  0  0  0  0
    0.3616    0.3298    3.2350 H   0  0  0  1  0  0  0  0  0  0  0  0
   -1.4413   -0.4477    3.2918 O   0  0  0  1  0  0  0  0  0  0  0  0
   -2.3126   -0.3210    2.9091 H   0  0  0  1  0  0  0  0  0  0  0  0
   -0.8571    1.2826    3.5163 C   0  0  0  1  0  0  0  0  0  0  0  0
   -1.4040    0.8901    4.3481 H   0  0  0  1  0  0  0  0  0  0  0  0
    0.3769    1.6817    4.1147 O   0  0  0  1  0  0  0  0  0  0  0  0
    0.3364    1.5331    5.0623 H   0  0  0  1  0  0  0  0  0  0  0  0
   -1.1903    1.9784    3.2242 C   0  0  0  1  0  0  0  0  0  0  0  0
   -2.0811    2.2398    3.7562 H   0  0  0  1  0  0  0  0  0  0  0  0
   -0.2938    3.0235    3.6042 O   0  0  0  1  0  0  0  0  0  0  0  0
   -0.6600    3.5045    4.3499 H   0  0  0  1  0  0  0  0  0  0  0  0
   -1.2825    2.0825    2.4110 C   0  0  0  1  0  0  0  0  0  0  0  0
   -0.8802    3.0275    2.1110 H   0  0  0  1  0  0  0  0  0  0  0  0
   -1.0416    1.4911    1.8890 O   0  0  0  1  0  0  0  0  0  0  0  0
   -2.7241    2.2561    2.0272 C   0  0  0  1  0  0  0  0  0  0  0  0
   -3.3504    1.7152    2.7056 H   0  0  0  1  0  0  0  0  0  0  0  0
   -2.8828    1.8977    1.0316 H   0  0  0  1  0  0  0  0  0  0  0  0
   -3.0200    3.6448    2.0959 O   0  0  0  1  0  0  0  0  0  0  0  0
   -3.1725    3.8951    3.0101 H   0  0  0  1  0  0  0  0  0  0  0  0
  1  2  1  0  0  0  0
  1  3  1  0  0  0  0
  1  4  1  0  0  0  0
  1 18  1  0  0  0  0
  3 24  1  0  0  0  0
  4  5  1  0  0  0  0
  4  6  1  0  0  0  0
  4  8  1  0  0  0  0
  6  7  1  0  0  0  0
  8  9  1  0  0  0  0
  8 10  1  0  0  0  0
  8 12  1  0  0  0  0
 10 11  1  0  0  0  0
 12 13  1  0  0  0  0
 12 14  1  0  0  0  0
 12 16  1  0  0  0  0
 14 15  1  0  0  0  0
 16 17  1  0  0  0  0
 16 18  1  0  0  0  0
 16 19  1  0  0  0  0
 19 20  1  0  0  0  0
 19 21  1  0  0  0  0
 19 22  1  0  0  0  0
 22 23  1  0  0  0  0
 24 25  1  0  0  0  0
 24 26  1  0  0  0  0
 24 40  1  0  0  0  0
 26 27  1  0  0  0  0
 26 28  1  0  0  0  0
 26 30  1  0  0  0  0
 28 29  1  0  0  0  0
 30 31  1  0  0  0  0
 30 32  1  0  0  0  0
 30 34  1  0  0  0  0
 32 33  1  0  0  0  0
 34 35  1  0  0  0  0
 34 36  1  0  0  0  0
 34 38  1  0  0  0  0
 36 37  1  0  0  0  0
 38 39  1  0  0  0  0
 38 40  1  0  0  0  0
 38 41  1  0  0  0  0
 41 42  1  0  0  0  0
 41 43  1  0  0  0  0
 41 44  1  0  0  0  0
 44 45  1  0  0  0  0
M  END
> <ConfClashScore>
0.0628171 

> <ConfOneFourInteractionScore>
-0.964708 

> <ConfScore>
7.08917 

> <ConfScorePBest>
0.00768248 

> <ConfTolerance>
0.891774 

$$$$
L16.****
  PyMOL2.4          3D                             0

 45 46  0  0  0  0  0  0  0  0999 V2000
    0.5684    0.5140    0.2002 C   0  0  0  1  0  0  0  0  0  0  0  0
    0.0510    1.1959   -0.4418 H   0  0  0  1  0  0  0  0  0  0  0  0
   -0.3278    0.3990    1.2994 O   0  0  0  1  0  0  0  0  0  0  0  0
    1.2239    0.8749    0.5473 C   0  0  0  1  0  0  0  0  0  0  0  0
    0.9961    1.2909    1.5064 H   0  0  0  1  0  0  0  0  0  0  0  0
    1.4741    2.0367   -0.2452 O   0  0  0  1  0  0  0  0  0  0  0  0
    1.3221    1.8321   -1.1708 H   0  0  0  1  0  0  0  0  0  0  0  0
    1.9558    0.4947    0.5379 C   0  0  0  1  0  0  0  0  0  0  0  0
    2.3197    0.4299    1.5421 H   0  0  0  1  0  0  0  0  0  0  0  0
    2.9044    1.3767   -0.0294 O   0  0  0  1  0  0  0  0  0  0  0  0
    3.2633    1.9452    0.6558 H   0  0  0  1  0  0  0  0  0  0  0  0
    2.0322   -0.2456    0.1819 C   0  0  0  1  0  0  0  0  0  0  0  0
    2.5766   -0.9273    0.8014 H   0  0  0  1  0  0  0  0  0  0  0  0
    2.9667    0.0266   -0.8656 O   0  0  0  1  0  0  0  0  0  0  0  0
    3.8339   -0.2995   -0.6142 H   0  0  0  1  0  0  0  0  0  0  0  0
    1.3768   -0.6066   -0.1652 C   0  0  0  1  0  0  0  0  0  0  0  0
    1.6185   -0.8723   -1.1731 H   0  0  0  1  0  0  0  0  0  0  0  0
    0.6448   -0.2263   -0.1558 O   0  0  0  1  0  0  0  0  0  0  0  0
    1.0627   -1.9642    0.4006 C   0  0  0  1  0  0  0  0  0  0  0  0
    1.7470   -2.6752   -0.0131 H   0  0  0  1  0  0  0  0  0  0  0  0
    0.0631   -2.2282    0.1247 H   0  0  0  1  0  0  0  0  0  0  0  0
    1.1694   -1.9998    1.8205 O   0  0  0  1  0  0  0  0  0  0  0  0
    1.9956   -2.4205    2.0693 H   0  0  0  1  0  0  0  0  0  0  0  0
   -1.6201   -0.0938    1.0065 C   0  0  0  1  0  0  0  0  0  0  0  0
   -1.5827   -0.2240   -0.0548 H   0  0  0  1  0  0  0  0  0  0  0  0
   -2.0927    0.5482    1.2189 C   0  0  0  1  0  0  0  0  0  0  0  0
   -1.5193    1.4460    1.3193 H   0  0  0  1  0  0  0  0  0  0  0  0
   -2.8135    0.7804    0.0041 O   0  0  0  1  0  0  0  0  0  0  0  0
   -2.9077    1.7253   -0.1371 H   0  0  0  1  0  0  0  0  0  0  0  0
   -2.6468    0.4705    1.8249 C   0  0  0  1  0  0  0  0  0  0  0  0
   -2.5348    1.2661    2.5316 H   0  0  0  1  0  0  0  0  0  0  0  0
   -3.8886    0.8118    1.2071 O   0  0  0  1  0  0  0  0  0  0  0  0
   -4.2138    1.6365    1.5753 H   0  0  0  1  0  0  0  0  0  0  0  0
   -2.7278   -0.2500    2.2183 C   0  0  0  1  0  0  0  0  0  0  0  0
   -3.7550   -0.5315    2.3215 H   0  0  0  1  0  0  0  0  0  0  0  0
   -2.3295   -0.0454    3.5753 O   0  0  0  1  0  0  0  0  0  0  0  0
   -3.0563   -0.2717    4.1602 H   0  0  0  1  0  0  0  0  0  0  0  0
   -2.2552   -0.8920    2.0059 C   0  0  0  1  0  0  0  0  0  0  0  0
   -1.8379   -1.3766    2.8637 H   0  0  0  1  0  0  0  0  0  0  0  0
   -1.7011   -0.8143    1.3999 O   0  0  0  1  0  0  0  0  0  0  0  0
   -3.1493   -1.9653    1.4541 C   0  0  0  1  0  0  0  0  0  0  0  0
   -2.5519   -2.7840    1.1109 H   0  0  0  1  0  0  0  0  0  0  0  0
   -3.7169   -1.5703    0.6376 H   0  0  0  1  0  0  0  0  0  0  0  0
   -4.0347   -2.4194    2.4692 O   0  0  0  1  0  0  0  0  0  0  0  0
   -3.6870   -3.2237    2.8614 H   0  0  0  1  0  0  0  0  0  0  0  0
  1  2  1  0  0  0  0
  1  3  1  0  0  0  0
  1  4  1  0  0  0  0
  1 18  1  0  0  0  0
  3 24  1  0  0  0  0
  4  5  1  0  0  0  0
  4  6  1  0  0  0  0
  4  8  1  0  0  0  0
  6  7  1  0  0  0  0
  8  9  1  0  0  0  0
  8 10  1  0  0  0  0
  8 12  1  0  0  0  0
 10 11  1  0  0  0  0
 12 13  1  0  0  0  0
 12 14  1  0  0  0  0
 12 16  1  0  0  0  0
 14 15  1  0  0  0  0
 16 17  1  0  0  0  0
 16 18  1  0  0  0  0
 16 19  1  0  0  0  0
 19 20  1  0  0  0  0
 19 21  1  0  0  0  0
 19 22  1  0  0  0  0
 22 23  1  0  0  0  0
 24 25  1  0  0  0  0
 24 26  1  0  0  0  0
 24 40  1  0  0  0  0
 26 27  1  0  0  0  0
 26 28  1  0  0  0  0
 26 30  1  0  0  0  0
 28 29  1  0  0  0  0
 30 31  1  0  0  0  0
 30 32  1  0  0  0  0
 30 34  1  0  0  0  0
 32 33  1  0  0  0  0
 34 35  1  0  0  0  0
 34 36  1  0  0  0  0
 34 38  1  0  0  0  0
 36 37  1  0  0  0  0
 38 39  1  0  0  0  0
 38 40  1  0  0  0  0
 38 41  1  0  0  0  0
 41 42  1  0  0  0  0
 41 43  1  0  0  0  0
 41 44  1  0  0  0  0
 44 45  1  0  0  0  0
M  END
> <ConfClashScore>
0.0615151 

> <ConfOneFourInteractionScore>
-0.967436 

> <ConfScore>
7.09303 

> <ConfScorePBest>
0.00757948 

> <ConfTolerance>
0.929182 

$$$$
L16.****
  PyMOL2.4          3D                             0

 45 46  0  0  0  0  0  0  0  0999 V2000
    0.5955    0.5567   -0.0912 C   0  0  0  1  0  0  0  0  0  0  0  0
   -0.2251    0.9662    0.4600 H   0  0  0  1  0  0  0  0  0  0  0  0
    0.2198    0.7802   -1.4453 O   0  0  0  1  0  0  0  0  0  0  0  0
    1.2806    1.0120   -0.0302 C   0  0  0  1  0  0  0  0  0  0  0  0
    1.3367    1.7235   -0.8273 H   0  0  0  1  0  0  0  0  0  0  0  0
    1.0799    1.8582    1.1045 O   0  0  0  1  0  0  0  0  0  0  0  0
    0.7197    1.3421    1.8295 H   0  0  0  1  0  0  0  0  0  0  0  0
    2.0097    0.6442    0.0863 C   0  0  0  1  0  0  0  0  0  0  0  0
    2.6832    0.9714   -0.6781 H   0  0  0  1  0  0  0  0  0  0  0  0
    2.6246    1.1975    1.2332 O   0  0  0  1  0  0  0  0  0  0  0  0
    3.4929    1.5343    1.0003 H   0  0  0  1  0  0  0  0  0  0  0  0
    2.0536   -0.1777    0.1416 C   0  0  0  1  0  0  0  0  0  0  0  0
    2.6292   -0.4705    0.9948 H   0  0  0  1  0  0  0  0  0  0  0  0
    2.8923   -0.6007   -0.9362 O   0  0  0  1  0  0  0  0  0  0  0  0
    3.7940   -0.3150   -0.7718 H   0  0  0  1  0  0  0  0  0  0  0  0
    1.3685   -0.6330    0.0806 C   0  0  0  1  0  0  0  0  0  0  0  0
    1.5070   -1.4133   -0.6383 H   0  0  0  1  0  0  0  0  0  0  0  0
    0.6394   -0.2653   -0.0359 O   0  0  0  1  0  0  0  0  0  0  0  0
    1.1615   -1.4358    1.3354 C   0  0  0  1  0  0  0  0  0  0  0  0
    0.4415   -2.2055    1.1504 H   0  0  0  1  0  0  0  0  0  0  0  0
    0.8058   -0.7936    2.1138 H   0  0  0  1  0  0  0  0  0  0  0  0
    2.3907   -2.0252    1.7343 O   0  0  0  1  0  0  0  0  0  0  0  0
    2.2147   -2.8185    2.2455 H   0  0  0  1  0  0  0  0  0  0  0  0
   -1.0963    0.4336   -1.7925 C   0  0  0  1  0  0  0  0  0  0  0  0
   -1.5479    0.2780   -0.8350 H   0  0  0  1  0  0  0  0  0  0  0  0
   -1.3733    1.1286   -2.1401 C   0  0  0  1  0  0  0  0  0  0  0  0
   -0.7211    1.9542   -1.9450 H   0  0  0  1  0  0  0  0  0  0  0  0
   -2.4999    1.4327   -1.3287 O   0  0  0  1  0  0  0  0  0  0  0  0
   -2.3421    2.2531   -0.8557 H   0  0  0  1  0  0  0  0  0  0  0  0
   -1.6323    1.1240   -2.9232 C   0  0  0  1  0  0  0  0  0  0  0  0
   -1.1986    1.9311   -3.4760 H   0  0  0  1  0  0  0  0  0  0  0  0
   -2.9887    1.5513   -2.7901 O   0  0  0  1  0  0  0  0  0  0  0  0
   -3.0291    2.5093   -2.8383 H   0  0  0  1  0  0  0  0  0  0  0  0
   -1.6140    0.4235   -3.3583 C   0  0  0  1  0  0  0  0  0  0  0  0
   -2.5465    0.2574   -3.8559 H   0  0  0  1  0  0  0  0  0  0  0  0
   -0.7253    0.6302   -4.4582 O   0  0  0  1  0  0  0  0  0  0  0  0
    0.0858    1.0356   -4.1430 H   0  0  0  1  0  0  0  0  0  0  0  0
   -1.3370   -0.2715   -3.0107 C   0  0  0  1  0  0  0  0  0  0  0  0
   -0.5999   -0.7272   -3.6384 H   0  0  0  1  0  0  0  0  0  0  0  0
   -1.0780   -0.2669   -2.2276 O   0  0  0  1  0  0  0  0  0  0  0  0
   -2.3704   -1.3629   -2.9572 C   0  0  0  1  0  0  0  0  0  0  0  0
   -3.2372   -0.9905   -2.4522 H   0  0  0  1  0  0  0  0  0  0  0  0
   -1.9675   -2.1908   -2.4121 H   0  0  0  1  0  0  0  0  0  0  0  0
   -2.7544   -1.8124   -4.2531 O   0  0  0  1  0  0  0  0  0  0  0  0
   -2.9792   -2.7450   -4.2152 H   0  0  0  1  0  0  0  0  0  0  0  0
  1  2  1  0  0  0  0
  1  3  1  0  0  0  0
  1  4  1  0  0  0  0
  1 18  1  0  0  0  0
  3 24  1  0  0  0  0
  4  5  1  0  0  0  0
  4  6  1  0  0  0  0
  4  8  1  0  0  0  0
  6  7  1  0  0  0  0
  8  9  1  0  0  0  0
  8 10  1  0  0  0  0
  8 12  1  0  0  0  0
 10 11  1  0  0  0  0
 12 13  1  0  0  0  0
 12 14  1  0  0  0  0
 12 16  1  0  0  0  0
 14 15  1  0  0  0  0
 16 17  1  0  0  0  0
 16 18  1  0  0  0  0
 16 19  1  0  0  0  0
 19 20  1  0  0  0  0
 19 21  1  0  0  0  0
 19 22  1  0  0  0  0
 22 23  1  0  0  0  0
 24 25  1  0  0  0  0
 24 26  1  0  0  0  0
 24 40  1  0  0  0  0
 26 27  1  0  0  0  0
 26 28  1  0  0  0  0
 26 30  1  0  0  0  0
 28 29  1  0  0  0  0
 30 31  1  0  0  0  0
 30 32  1  0  0  0  0
 30 34  1  0  0  0  0
 32 33  1  0  0  0  0
 34 35  1  0  0  0  0
 34 36  1  0  0  0  0
 34 38  1  0  0  0  0
 36 37  1  0  0  0  0
 38 39  1  0  0  0  0
 38 40  1  0  0  0  0
 38 41  1  0  0  0  0
 41 42  1  0  0  0  0
 41 43  1  0  0  0  0
 41 44  1  0  0  0  0
 44 45  1  0  0  0  0
M  END
> <ConfClashScore>
0.062053 

> <ConfOneFourInteractionScore>
-0.970584 

> <ConfScore>
7.1141 

> <ConfScorePBest>
0.00747648 

> <ConfTolerance>
0.930273 

$$$$
L16.****
  PyMOL2.4          3D                             0

 45 46  0  0  0  0  0  0  0  0999 V2000
    0.5888    0.4557    0.3230 C   0  0  0  1  0  0  0  0  0  0  0  0
    0.1428    0.8738    1.2011 H   0  0  0  1  0  0  0  0  0  0  0  0
   -0.4682    0.5295   -0.6268 O   0  0  0  1  0  0  0  0  0  0  0  0
    1.1860    0.9419    0.0275 C   0  0  0  1  0  0  0  0  0  0  0  0
    0.8214    1.6263   -0.7097 H   0  0  0  1  0  0  0  0  0  0  0  0
    1.5229    1.8062    1.1147 O   0  0  0  1  0  0  0  0  0  0  0  0
    0.7656    2.3533    1.3357 H   0  0  0  1  0  0  0  0  0  0  0  0
    1.9144    0.6170   -0.1829 C   0  0  0  1  0  0  0  0  0  0  0  0
    2.1918    0.9357   -1.1660 H   0  0  0  1  0  0  0  0  0  0  0  0
    2.9112    1.2567    0.6162 O   0  0  0  1  0  0  0  0  0  0  0  0
    3.6300    1.5549    0.0540 H   0  0  0  1  0  0  0  0  0  0  0  0
    2.0454   -0.1930   -0.0980 C   0  0  0  1  0  0  0  0  0  0  0  0
    2.4712   -0.6073   -0.9879 H   0  0  0  1  0  0  0  0  0  0  0  0
    3.1099   -0.3545    0.8413 O   0  0  0  1  0  0  0  0  0  0  0  0
    3.9350   -0.4919    0.3700 H   0  0  0  1  0  0  0  0  0  0  0  0
    1.4482   -0.6793    0.1975 C   0  0  0  1  0  0  0  0  0  0  0  0
    1.8205   -1.3211    0.9684 H   0  0  0  1  0  0  0  0  0  0  0  0
    0.7198   -0.3544    0.4079 O   0  0  0  1  0  0  0  0  0  0  0  0
    1.1062   -1.6745   -0.8741 C   0  0  0  1  0  0  0  0  0  0  0  0
    1.9240   -2.3489   -1.0206 H   0  0  0  1  0  0  0  0  0  0  0  0
    0.8942   -1.1656   -1.7911 H   0  0  0  1  0  0  0  0  0  0  0  0
   -0.0421   -2.3913   -0.4402 O   0  0  0  1  0  0  0  0  0  0  0  0
    0.1461   -2.8214    0.3972 H   0  0  0  1  0  0  0  0  0  0  0  0
   -1.6961    0.9112   -0.0752 C   0  0  0  1  0  0  0  0  0  0  0  0
   -1.9661    0.0372    0.4798 H   0  0  0  1  0  0  0  0  0  0  0  0
   -2.1885    0.9942   -0.7319 C   0  0  0  1  0  0  0  0  0  0  0  0
   -1.6939    0.6463   -1.6147 H   0  0  0  1  0  0  0  0  0  0  0  0
   -3.2686    0.0763   -0.6273 O   0  0  0  1  0  0  0  0  0  0  0  0
   -3.6522    0.1315    0.2511 H   0  0  0  1  0  0  0  0  0  0  0  0
   -2.5644    1.7137   -0.8780 C   0  0  0  1  0  0  0  0  0  0  0  0
   -3.6101    1.5589   -1.0436 H   0  0  0  1  0  0  0  0  0  0  0  0
   -2.1273    2.1239   -2.1744 O   0  0  0  1  0  0  0  0  0  0  0  0
   -1.2088    1.8732   -2.2971 H   0  0  0  1  0  0  0  0  0  0  0  0
   -2.4472    2.3502   -0.3666 C   0  0  0  1  0  0  0  0  0  0  0  0
   -3.3819    2.7895   -0.0869 H   0  0  0  1  0  0  0  0  0  0  0  0
   -1.8613    3.3870   -1.1564 O   0  0  0  1  0  0  0  0  0  0  0  0
   -2.5060    4.0836   -1.3001 H   0  0  0  1  0  0  0  0  0  0  0  0
   -1.9548    2.2672    0.2901 C   0  0  0  1  0  0  0  0  0  0  0  0
   -1.2318    3.0560    0.2968 H   0  0  0  1  0  0  0  0  0  0  0  0
   -1.5789    1.5477    0.4362 O   0  0  0  1  0  0  0  0  0  0  0  0
   -2.6691    2.5370    1.5933 C   0  0  0  1  0  0  0  0  0  0  0  0
   -3.3188    1.7138    1.8055 H   0  0  0  1  0  0  0  0  0  0  0  0
   -3.2476    3.4310    1.4890 H   0  0  0  1  0  0  0  0  0  0  0  0
   -1.7702    2.7002    2.6808 O   0  0  0  1  0  0  0  0  0  0  0  0
   -2.2549    2.9929    3.4561 H   0  0  0  1  0  0  0  0  0  0  0  0
  1  2  1  0  0  0  0
  1  3  1  0  0  0  0
  1  4  1  0  0  0  0
  1 18  1  0  0  0  0
  3 24  1  0  0  0  0
  4  5  1  0  0  0  0
  4  6  1  0  0  0  0
  4  8  1  0  0  0  0
  6  7  1  0  0  0  0
  8  9  1  0  0  0  0
  8 10  1  0  0  0  0
  8 12  1  0  0  0  0
 10 11  1  0  0  0  0
 12 13  1  0  0  0  0
 12 14  1  0  0  0  0
 12 16  1  0  0  0  0
 14 15  1  0  0  0  0
 16 17  1  0  0  0  0
 16 18  1  0  0  0  0
 16 19  1  0  0  0  0
 19 20  1  0  0  0  0
 19 21  1  0  0  0  0
 19 22  1  0  0  0  0
 22 23  1  0  0  0  0
 24 25  1  0  0  0  0
 24 26  1  0  0  0  0
 24 40  1  0  0  0  0
 26 27  1  0  0  0  0
 26 28  1  0  0  0  0
 26 30  1  0  0  0  0
 28 29  1  0  0  0  0
 30 31  1  0  0  0  0
 30 32  1  0  0  0  0
 30 34  1  0  0  0  0
 32 33  1  0  0  0  0
 34 35  1  0  0  0  0
 34 36  1  0  0  0  0
 34 38  1  0  0  0  0
 36 37  1  0  0  0  0
 38 39  1  0  0  0  0
 38 40  1  0  0  0  0
 38 41  1  0  0  0  0
 41 42  1  0  0  0  0
 41 43  1  0  0  0  0
 41 44  1  0  0  0  0
 44 45  1  0  0  0  0
M  END
> <ConfClashScore>
0.0613013 

> <ConfOneFourInteractionScore>
-0.973638 

> <ConfScore>
7.11786 

> <ConfScorePBest>
0.00737347 

> <ConfTolerance>
0.919946 

$$$$
L16.****
  PyMOL2.4          3D                             0

 45 46  0  0  0  0  0  0  0  0999 V2000
    0.6813    0.2767    0.4180 C   0  0  0  1  0  0  0  0  0  0  0  0
    0.1394    0.1369    1.3300 H   0  0  0  1  0  0  0  0  0  0  0  0
   -0.2572    0.9843   -0.3838 O   0  0  0  1  0  0  0  0  0  0  0  0
    1.3096    0.8005    0.5245 C   0  0  0  1  0  0  0  0  0  0  0  0
    1.3472    1.1695    1.5281 H   0  0  0  1  0  0  0  0  0  0  0  0
    0.9174    1.9610   -0.2102 O   0  0  0  1  0  0  0  0  0  0  0  0
    1.0357    2.7414    0.3363 H   0  0  0  1  0  0  0  0  0  0  0  0
    2.0607    0.6039    0.2460 C   0  0  0  1  0  0  0  0  0  0  0  0
    2.8030    0.7669    0.9991 H   0  0  0  1  0  0  0  0  0  0  0  0
    2.3574    1.6414   -0.6904 O   0  0  0  1  0  0  0  0  0  0  0  0
    3.2664    1.9275   -0.5742 H   0  0  0  1  0  0  0  0  0  0  0  0
    2.1834   -0.1157   -0.1385 C   0  0  0  1  0  0  0  0  0  0  0  0
    2.7437    0.0128   -1.0409 H   0  0  0  1  0  0  0  0  0  0  0  0
    3.0989   -0.8411    0.6849 O   0  0  0  1  0  0  0  0  0  0  0  0
    2.6701   -1.0757    1.5112 H   0  0  0  1  0  0  0  0  0  0  0  0
    1.5551   -0.6395   -0.2450 C   0  0  0  1  0  0  0  0  0  0  0  0
    1.8315   -1.5864    0.1696 H   0  0  0  1  0  0  0  0  0  0  0  0
    0.8041   -0.4429    0.0336 O   0  0  0  1  0  0  0  0  0  0  0  0
    1.3151   -1.0466   -1.6863 C   0  0  0  1  0  0  0  0  0  0  0  0
    1.0957   -0.1882   -2.2862 H   0  0  0  1  0  0  0  0  0  0  0  0
    0.5048   -1.7426   -1.7487 H   0  0  0  1  0  0  0  0  0  0  0  0
    2.5413   -1.6621   -2.1181 O   0  0  0  1  0  0  0  0  0  0  0  0
    2.3939   -2.5986   -2.2693 H   0  0  0  1  0  0  0  0  0  0  0  0
   -1.5673    0.8890    0.0714 C   0  0  0  1  0  0  0  0  0  0  0  0
   -1.4416    0.7009    1.1172 H   0  0  0  1  0  0  0  0  0  0  0  0
   -1.8896    1.6350   -0.0706 C   0  0  0  1  0  0  0  0  0  0  0  0
   -1.1154    2.3469   -0.2671 H   0  0  0  1  0  0  0  0  0  0  0  0
   -2.4523    2.1440    1.1313 O   0  0  0  1  0  0  0  0  0  0  0  0
   -1.9654    2.9237    1.4080 H   0  0  0  1  0  0  0  0  0  0  0  0
   -2.5067    1.7222   -0.6109 C   0  0  0  1  0  0  0  0  0  0  0  0
   -3.3016    2.3050   -0.1943 H   0  0  0  1  0  0  0  0  0  0  0  0
   -2.0366    2.5704   -1.6596 O   0  0  0  1  0  0  0  0  0  0  0  0
   -1.8769    3.4510   -1.3123 H   0  0  0  1  0  0  0  0  0  0  0  0
   -2.8011    1.0626   -1.0091 C   0  0  0  1  0  0  0  0  0  0  0  0
   -3.8692    1.0312   -0.9539 H   0  0  0  1  0  0  0  0  0  0  0  0
   -2.5874    1.3259   -2.3973 O   0  0  0  1  0  0  0  0  0  0  0  0
   -1.6534    1.2366   -2.6003 H   0  0  0  1  0  0  0  0  0  0  0  0
   -2.4787    0.3165   -0.8671 C   0  0  0  1  0  0  0  0  0  0  0  0
   -2.2210   -0.1518   -1.7940 H   0  0  0  1  0  0  0  0  0  0  0  0
   -1.8616    0.2293   -0.3268 O   0  0  0  1  0  0  0  0  0  0  0  0
   -3.5342   -0.6286   -0.3624 C   0  0  0  1  0  0  0  0  0  0  0  0
   -4.3963   -0.5478   -0.9911 H   0  0  0  1  0  0  0  0  0  0  0  0
   -3.7942   -0.3506    0.6376 H   0  0  0  1  0  0  0  0  0  0  0  0
   -3.0960   -1.9808   -0.3607 O   0  0  0  1  0  0  0  0  0  0  0  0
   -2.3853   -2.0882   -0.9971 H   0  0  0  1  0  0  0  0  0  0  0  0
  1  2  1  0  0  0  0
  1  3  1  0  0  0  0
  1  4  1  0  0  0  0
  1 18  1  0  0  0  0
  3 24  1  0  0  0  0
  4  5  1  0  0  0  0
  4  6  1  0  0  0  0
  4  8  1  0  0  0  0
  6  7  1  0  0  0  0
  8  9  1  0  0  0  0
  8 10  1  0  0  0  0
  8 12  1  0  0  0  0
 10 11  1  0  0  0  0
 12 13  1  0  0  0  0
 12 14  1  0  0  0  0
 12 16  1  0  0  0  0
 14 15  1  0  0  0  0
 16 17  1  0  0  0  0
 16 18  1  0  0  0  0
 16 19  1  0  0  0  0
 19 20  1  0  0  0  0
 19 21  1  0  0  0  0
 19 22  1  0  0  0  0
 22 23  1  0  0  0  0
 24 25  1  0  0  0  0
 24 26  1  0  0  0  0
 24 40  1  0  0  0  0
 26 27  1  0  0  0  0
 26 28  1  0  0  0  0
 26 30  1  0  0  0  0
 28 29  1  0  0  0  0
 30 31  1  0  0  0  0
 30 32  1  0  0  0  0
 30 34  1  0  0  0  0
 32 33  1  0  0  0  0
 34 35  1  0  0  0  0
 34 36  1  0  0  0  0
 34 38  1  0  0  0  0
 36 37  1  0  0  0  0
 38 39  1  0  0  0  0
 38 40  1  0  0  0  0
 38 41  1  0  0  0  0
 41 42  1  0  0  0  0
 41 43  1  0  0  0  0
 41 44  1  0  0  0  0
 44 45  1  0  0  0  0
M  END
> <ConfClashScore>
0.0633048 

> <ConfOneFourInteractionScore>
-0.964276 

> <ConfScore>
7.13339 

> <ConfScorePBest>
0.00727047 

> <ConfTolerance>
0.897881 

$$$$
L16.****
  PyMOL2.4          3D                             0

 45 46  0  0  0  0  0  0  0  0999 V2000
    0.7132    0.5331   -0.2952 C   0  0  0  1  0  0  0  0  0  0  0  0
    0.4408    1.0430   -1.1956 H   0  0  0  1  0  0  0  0  0  0  0  0
   -0.4053    0.7919    0.5454 O   0  0  0  1  0  0  0  0  0  0  0  0
    1.3207    0.9302    0.0966 C   0  0  0  1  0  0  0  0  0  0  0  0
    1.5909    1.8410   -0.3957 H   0  0  0  1  0  0  0  0  0  0  0  0
    0.7260    1.3981    1.3119 O   0  0  0  1  0  0  0  0  0  0  0  0
    0.6183    2.3511    1.2698 H   0  0  0  1  0  0  0  0  0  0  0  0
    1.9806    0.5127    0.3625 C   0  0  0  1  0  0  0  0  0  0  0  0
    2.2265    0.7697    1.3716 H   0  0  0  1  0  0  0  0  0  0  0  0
    3.0663    1.0858   -0.3684 O   0  0  0  1  0  0  0  0  0  0  0  0
    3.2277    1.9787   -0.0550 H   0  0  0  1  0  0  0  0  0  0  0  0
    2.0328   -0.3010    0.2366 C   0  0  0  1  0  0  0  0  0  0  0  0
    2.3069   -0.8113    1.1362 H   0  0  0  1  0  0  0  0  0  0  0  0
    3.2286   -0.4048   -0.5383 O   0  0  0  1  0  0  0  0  0  0  0  0
    3.9892   -0.4230    0.0470 H   0  0  0  1  0  0  0  0  0  0  0  0
    1.4252   -0.6981   -0.1552 C   0  0  0  1  0  0  0  0  0  0  0  0
    1.8128   -1.3361   -0.9218 H   0  0  0  1  0  0  0  0  0  0  0  0
    0.7654   -0.2805   -0.4211 O   0  0  0  1  0  0  0  0  0  0  0  0
    0.7965   -1.7054    0.7806 C   0  0  0  1  0  0  0  0  0  0  0  0
    1.5471   -2.4029    1.0888 H   0  0  0  1  0  0  0  0  0  0  0  0
    0.0210   -2.2237    0.2563 H   0  0  0  1  0  0  0  0  0  0  0  0
    0.2376   -1.0972    1.9361 O   0  0  0  1  0  0  0  0  0  0  0  0
   -0.5420   -1.5859    2.2102 H   0  0  0  1  0  0  0  0  0  0  0  0
   -1.6076    1.0352   -0.1630 C   0  0  0  1  0  0  0  0  0  0  0  0
   -1.4633    2.0310   -0.5270 H   0  0  0  1  0  0  0  0  0  0  0  0
   -2.1644    1.0100    0.4452 C   0  0  0  1  0  0  0  0  0  0  0  0
   -2.5850    1.9806    0.6067 H   0  0  0  1  0  0  0  0  0  0  0  0
   -1.4651    0.7931    1.6634 O   0  0  0  1  0  0  0  0  0  0  0  0
   -1.5201    1.5809    2.2092 H   0  0  0  1  0  0  0  0  0  0  0  0
   -2.7575    0.4368    0.4387 C   0  0  0  1  0  0  0  0  0  0  0  0
   -3.7179    0.8632    0.6405 H   0  0  0  1  0  0  0  0  0  0  0  0
   -2.5107   -0.3261    1.6207 O   0  0  0  1  0  0  0  0  0  0  0  0
   -3.3423   -0.5057    2.0656 H   0  0  0  1  0  0  0  0  0  0  0  0
   -2.7930   -0.1113   -0.1767 C   0  0  0  1  0  0  0  0  0  0  0  0
   -3.7799   -0.1291   -0.5897 H   0  0  0  1  0  0  0  0  0  0  0  0
   -2.7081   -1.4158    0.4004 O   0  0  0  1  0  0  0  0  0  0  0  0
   -3.5745   -1.6840    0.7151 H   0  0  0  1  0  0  0  0  0  0  0  0
   -2.2361   -0.0861   -0.7849 C   0  0  0  1  0  0  0  0  0  0  0  0
   -1.7883   -1.0522   -0.8901 H   0  0  0  1  0  0  0  0  0  0  0  0
   -1.6430    0.4871   -0.7784 O   0  0  0  1  0  0  0  0  0  0  0  0
   -2.9325    0.0349   -2.1124 C   0  0  0  1  0  0  0  0  0  0  0  0
   -3.6553   -0.7499   -2.1937 H   0  0  0  1  0  0  0  0  0  0  0  0
   -2.2062   -0.0663   -2.8916 H   0  0  0  1  0  0  0  0  0  0  0  0
   -3.5947    1.2820   -2.2657 O   0  0  0  1  0  0  0  0  0  0  0  0
   -2.9906    1.9949   -2.0454 H   0  0  0  1  0  0  0  0  0  0  0  0
  1  2  1  0  0  0  0
  1  3  1  0  0  0  0
  1  4  1  0  0  0  0
  1 18  1  0  0  0  0
  3 24  1  0  0  0  0
  4  5  1  0  0  0  0
  4  6  1  0  0  0  0
  4  8  1  0  0  0  0
  6  7  1  0  0  0  0
  8  9  1  0  0  0  0
  8 10  1  0  0  0  0
  8 12  1  0  0  0  0
 10 11  1  0  0  0  0
 12 13  1  0  0  0  0
 12 14  1  0  0  0  0
 12 16  1  0  0  0  0
 14 15  1  0  0  0  0
 16 17  1  0  0  0  0
 16 18  1  0  0  0  0
 16 19  1  0  0  0  0
 19 20  1  0  0  0  0
 19 21  1  0  0  0  0
 19 22  1  0  0  0  0
 22 23  1  0  0  0  0
 24 25  1  0  0  0  0
 24 26  1  0  0  0  0
 24 40  1  0  0  0  0
 26 27  1  0  0  0  0
 26 28  1  0  0  0  0
 26 30  1  0  0  0  0
 28 29  1  0  0  0  0
 30 31  1  0  0  0  0
 30 32  1  0  0  0  0
 30 34  1  0  0  0  0
 32 33  1  0  0  0  0
 34 35  1  0  0  0  0
 34 36  1  0  0  0  0
 34 38  1  0  0  0  0
 36 37  1  0  0  0  0
 38 39  1  0  0  0  0
 38 40  1  0  0  0  0
 38 41  1  0  0  0  0
 41 42  1  0  0  0  0
 41 43  1  0  0  0  0
 41 44  1  0  0  0  0
 44 45  1  0  0  0  0
M  END
> <ConfClashScore>
0.0636144 

> <ConfOneFourInteractionScore>
-0.97112 

> <ConfScore>
7.13588 

> <ConfScorePBest>
0.00716747 

> <ConfTolerance>
0.86086 

$$$$
L16.****
  PyMOL2.4          3D                             0

 45 46  0  0  0  0  0  0  0  0999 V2000
    0.6224    0.4476    0.1882 C   0  0  0  1  0  0  0  0  0  0  0  0
   -0.0225    1.0706   -0.3956 H   0  0  0  1  0  0  0  0  0  0  0  0
   -0.1472    0.2333    1.3668 O   0  0  0  1  0  0  0  0  0  0  0  0
    1.2914    0.8623    0.4347 C   0  0  0  1  0  0  0  0  0  0  0  0
    1.1647    1.2070    1.4397 H   0  0  0  1  0  0  0  0  0  0  0  0
    1.2764    2.0913   -0.2931 O   0  0  0  1  0  0  0  0  0  0  0  0
    0.5376    2.6290    0.0013 H   0  0  0  1  0  0  0  0  0  0  0  0
    2.0400    0.5295    0.3390 C   0  0  0  1  0  0  0  0  0  0  0  0
    2.6298    0.6220    1.2270 H   0  0  0  1  0  0  0  0  0  0  0  0
    2.6668    1.4635   -0.5413 O   0  0  0  1  0  0  0  0  0  0  0  0
    3.2610    2.0270   -0.0403 H   0  0  0  1  0  0  0  0  0  0  0  0
    2.1195   -0.2172   -0.0027 C   0  0  0  1  0  0  0  0  0  0  0  0
    2.8346   -0.1776   -0.7977 H   0  0  0  1  0  0  0  0  0  0  0  0
    2.8062   -1.0312    0.9504 O   0  0  0  1  0  0  0  0  0  0  0  0
    3.7538   -0.9274    0.8368 H   0  0  0  1  0  0  0  0  0  0  0  0
    1.4505   -0.6320   -0.2492 C   0  0  0  1  0  0  0  0  0  0  0  0
    1.4584   -1.6017    0.2029 H   0  0  0  1  0  0  0  0  0  0  0  0
    0.7018   -0.2991   -0.1535 O   0  0  0  1  0  0  0  0  0  0  0  0
    1.4179   -1.0221   -1.7013 C   0  0  0  1  0  0  0  0  0  0  0  0
    1.8652   -0.2391   -2.2773 H   0  0  0  1  0  0  0  0  0  0  0  0
    0.3982   -1.1475   -2.0003 H   0  0  0  1  0  0  0  0  0  0  0  0
    2.1189   -2.2312   -1.9540 O   0  0  0  1  0  0  0  0  0  0  0  0
    3.0318   -2.0323   -2.1743 H   0  0  0  1  0  0  0  0  0  0  0  0
   -1.4653   -0.1467    1.0643 C   0  0  0  1  0  0  0  0  0  0  0  0
   -1.7816    0.6377    0.4089 H   0  0  0  1  0  0  0  0  0  0  0  0
   -1.8454   -0.0940    1.7947 C   0  0  0  1  0  0  0  0  0  0  0  0
   -2.5150    0.7402    1.8209 H   0  0  0  1  0  0  0  0  0  0  0  0
   -0.8621    0.2846    2.7486 O   0  0  0  1  0  0  0  0  0  0  0  0
   -1.2925    0.5453    3.5662 H   0  0  0  1  0  0  0  0  0  0  0  0
   -2.1921   -0.7636    2.1290 C   0  0  0  1  0  0  0  0  0  0  0  0
   -1.9270   -0.8694    3.1603 H   0  0  0  1  0  0  0  0  0  0  0  0
   -3.5895   -0.4777    2.2036 O   0  0  0  1  0  0  0  0  0  0  0  0
   -3.7715    0.0264    3.0000 H   0  0  0  1  0  0  0  0  0  0  0  0
   -2.1583   -1.4859    1.7322 C   0  0  0  1  0  0  0  0  0  0  0  0
   -1.8008   -2.2509    2.3894 H   0  0  0  1  0  0  0  0  0  0  0  0
   -3.5283   -1.8618    1.5774 O   0  0  0  1  0  0  0  0  0  0  0  0
   -3.8857   -1.4514    0.7866 H   0  0  0  1  0  0  0  0  0  0  0  0
   -1.7782   -1.5386    1.0019 C   0  0  0  1  0  0  0  0  0  0  0  0
   -2.4178   -2.0154    0.2889 H   0  0  0  1  0  0  0  0  0  0  0  0
   -1.4314   -0.8690    0.6675 O   0  0  0  1  0  0  0  0  0  0  0  0
   -0.6120   -2.4846    1.0058 C   0  0  0  1  0  0  0  0  0  0  0  0
   -0.8898   -3.3895    1.5046 H   0  0  0  1  0  0  0  0  0  0  0  0
    0.2111   -2.0323    1.5187 H   0  0  0  1  0  0  0  0  0  0  0  0
   -0.2307   -2.7799   -0.3313 O   0  0  0  1  0  0  0  0  0  0  0  0
   -0.5371   -2.0810   -0.9138 H   0  0  0  1  0  0  0  0  0  0  0  0
  1  2  1  0  0  0  0
  1  3  1  0  0  0  0
  1  4  1  0  0  0  0
  1 18  1  0  0  0  0
  3 24  1  0  0  0  0
  4  5  1  0  0  0  0
  4  6  1  0  0  0  0
  4  8  1  0  0  0  0
  6  7  1  0  0  0  0
  8  9  1  0  0  0  0
  8 10  1  0  0  0  0
  8 12  1  0  0  0  0
 10 11  1  0  0  0  0
 12 13  1  0  0  0  0
 12 14  1  0  0  0  0
 12 16  1  0  0  0  0
 14 15  1  0  0  0  0
 16 17  1  0  0  0  0
 16 18  1  0  0  0  0
 16 19  1  0  0  0  0
 19 20  1  0  0  0  0
 19 21  1  0  0  0  0
 19 22  1  0  0  0  0
 22 23  1  0  0  0  0
 24 25  1  0  0  0  0
 24 26  1  0  0  0  0
 24 40  1  0  0  0  0
 26 27  1  0  0  0  0
 26 28  1  0  0  0  0
 26 30  1  0  0  0  0
 28 29  1  0  0  0  0
 30 31  1  0  0  0  0
 30 32  1  0  0  0  0
 30 34  1  0  0  0  0
 32 33  1  0  0  0  0
 34 35  1  0  0  0  0
 34 36  1  0  0  0  0
 34 38  1  0  0  0  0
 36 37  1  0  0  0  0
 38 39  1  0  0  0  0
 38 40  1  0  0  0  0
 38 41  1  0  0  0  0
 41 42  1  0  0  0  0
 41 43  1  0  0  0  0
 41 44  1  0  0  0  0
 44 45  1  0  0  0  0
M  END
> <ConfClashScore>
0.0638242 

> <ConfOneFourInteractionScore>
-0.957665 

> <ConfScore>
7.17161 

> <ConfScorePBest>
0.00706447 

> <ConfTolerance>
0.912178 

$$$$
L16.****
  PyMOL2.4          3D                             0

 45 46  0  0  0  0  0  0  0  0999 V2000
    0.6279    0.3485    0.1896 C   0  0  0  1  0  0  0  0  0  0  0  0
   -0.1722    0.8624   -0.3008 H   0  0  0  1  0  0  0  0  0  0  0  0
    0.0550   -0.0231    1.4380 O   0  0  0  1  0  0  0  0  0  0  0  0
    1.2436    0.8543    0.4028 C   0  0  0  1  0  0  0  0  0  0  0  0
    1.1250    1.1616    1.4208 H   0  0  0  1  0  0  0  0  0  0  0  0
    1.0477    2.0897   -0.2871 O   0  0  0  1  0  0  0  0  0  0  0  0
    1.0343    2.8115    0.3457 H   0  0  0  1  0  0  0  0  0  0  0  0
    2.0257    0.6300    0.2675 C   0  0  0  1  0  0  0  0  0  0  0  0
    2.6194    0.7755    1.1457 H   0  0  0  1  0  0  0  0  0  0  0  0
    2.5673    1.6078   -0.6170 O   0  0  0  1  0  0  0  0  0  0  0  0
    3.5261    1.5794   -0.5778 H   0  0  0  1  0  0  0  0  0  0  0  0
    2.1920   -0.0994   -0.0804 C   0  0  0  1  0  0  0  0  0  0  0  0
    2.8977    0.0060   -0.8777 H   0  0  0  1  0  0  0  0  0  0  0  0
    2.9647   -0.7767    0.9128 O   0  0  0  1  0  0  0  0  0  0  0  0
    2.3808   -1.1255    1.5903 H   0  0  0  1  0  0  0  0  0  0  0  0
    1.5763   -0.6052   -0.2935 C   0  0  0  1  0  0  0  0  0  0  0  0
    1.7544   -1.5927    0.0783 H   0  0  0  1  0  0  0  0  0  0  0  0
    0.7942   -0.3809   -0.1583 O   0  0  0  1  0  0  0  0  0  0  0  0
    1.6032   -0.8481   -1.7869 C   0  0  0  1  0  0  0  0  0  0  0  0
    1.8354    0.0725   -2.2804 H   0  0  0  1  0  0  0  0  0  0  0  0
    0.6364   -1.1858   -2.0973 H   0  0  0  1  0  0  0  0  0  0  0  0
    2.5676   -1.8215   -2.1609 O   0  0  0  1  0  0  0  0  0  0  0  0
    2.8969   -1.6247   -3.0409 H   0  0  0  1  0  0  0  0  0  0  0  0
   -1.3534   -0.1408    1.4719 C   0  0  0  1  0  0  0  0  0  0  0  0
   -1.5478   -0.2108    2.5218 H   0  0  0  1  0  0  0  0  0  0  0  0
   -1.4880   -0.8629    1.0964 C   0  0  0  1  0  0  0  0  0  0  0  0
   -0.5756   -1.4099    0.9812 H   0  0  0  1  0  0  0  0  0  0  0  0
   -2.2106   -1.6829    2.0050 O   0  0  0  1  0  0  0  0  0  0  0  0
   -1.5952   -2.1444    2.5792 H   0  0  0  1  0  0  0  0  0  0  0  0
   -1.9383   -0.8918    0.4059 C   0  0  0  1  0  0  0  0  0  0  0  0
   -1.4719   -1.4922   -0.3470 H   0  0  0  1  0  0  0  0  0  0  0  0
   -3.0319   -1.7131    0.8178 O   0  0  0  1  0  0  0  0  0  0  0  0
   -2.9754   -2.5654    0.3796 H   0  0  0  1  0  0  0  0  0  0  0  0
   -2.2539   -0.1976    0.0914 C   0  0  0  1  0  0  0  0  0  0  0  0
   -3.3014   -0.3239   -0.0865 H   0  0  0  1  0  0  0  0  0  0  0  0
   -1.7584   -0.0627   -1.2421 O   0  0  0  1  0  0  0  0  0  0  0  0
   -2.4871   -0.1314   -1.8633 H   0  0  0  1  0  0  0  0  0  0  0  0
   -2.1193    0.5245    0.4669 C   0  0  0  1  0  0  0  0  0  0  0  0
   -1.7647    1.2479   -0.2373 H   0  0  0  1  0  0  0  0  0  0  0  0
   -1.6690    0.5534    1.1574 O   0  0  0  1  0  0  0  0  0  0  0  0
   -3.4003    1.1684    0.9135 C   0  0  0  1  0  0  0  0  0  0  0  0
   -4.0265    1.3417    0.0633 H   0  0  0  1  0  0  0  0  0  0  0  0
   -3.1820    2.1001    1.3922 H   0  0  0  1  0  0  0  0  0  0  0  0
   -4.0723    0.3131    1.8286 O   0  0  0  1  0  0  0  0  0  0  0  0
   -5.0210    0.4286    1.7378 H   0  0  0  1  0  0  0  0  0  0  0  0
  1  2  1  0  0  0  0
  1  3  1  0  0  0  0
  1  4  1  0  0  0  0
  1 18  1  0  0  0  0
  3 24  1  0  0  0  0
  4  5  1  0  0  0  0
  4  6  1  0  0  0  0
  4  8  1  0  0  0  0
  6  7  1  0  0  0  0
  8  9  1  0  0  0  0
  8 10  1  0  0  0  0
  8 12  1  0  0  0  0
 10 11  1  0  0  0  0
 12 13  1  0  0  0  0
 12 14  1  0  0  0  0
 12 16  1  0  0  0  0
 14 15  1  0  0  0  0
 16 17  1  0  0  0  0
 16 18  1  0  0  0  0
 16 19  1  0  0  0  0
 19 20  1  0  0  0  0
 19 21  1  0  0  0  0
 19 22  1  0  0  0  0
 22 23  1  0  0  0  0
 24 25  1  0  0  0  0
 24 26  1  0  0  0  0
 24 40  1  0  0  0  0
 26 27  1  0  0  0  0
 26 28  1  0  0  0  0
 26 30  1  0  0  0  0
 28 29  1  0  0  0  0
 30 31  1  0  0  0  0
 30 32  1  0  0  0  0
 30 34  1  0  0  0  0
 32 33  1  0  0  0  0
 34 35  1  0  0  0  0
 34 36  1  0  0  0  0
 34 38  1  0  0  0  0
 36 37  1  0  0  0  0
 38 39  1  0  0  0  0
 38 40  1  0  0  0  0
 38 41  1  0  0  0  0
 41 42  1  0  0  0  0
 41 43  1  0  0  0  0
 41 44  1  0  0  0  0
 44 45  1  0  0  0  0
M  END
> <ConfClashScore>
0.0635942 

> <ConfOneFourInteractionScore>
-0.96156 

> <ConfScore>
7.19152 

> <ConfScorePBest>
0.00696147 

> <ConfTolerance>
0.980332 

$$$$
L16.****
  PyMOL2.4          3D                             0

 45 46  0  0  0  0  0  0  0  0999 V2000
    0.6768    0.5609    0.1312 C   0  0  0  1  0  0  0  0  0  0  0  0
   -0.0231    0.6479    0.9359 H   0  0  0  1  0  0  0  0  0  0  0  0
   -0.0084    1.2086   -0.9344 O   0  0  0  1  0  0  0  0  0  0  0  0
    1.3450    1.0244    0.2689 C   0  0  0  1  0  0  0  0  0  0  0  0
    1.2736    1.9159   -0.3185 H   0  0  0  1  0  0  0  0  0  0  0  0
    1.3471    1.5636    1.5717 O   0  0  0  1  0  0  0  0  0  0  0  0
    1.4824    0.8593    2.2098 H   0  0  0  1  0  0  0  0  0  0  0  0
    2.0974    0.7007    0.1709 C   0  0  0  1  0  0  0  0  0  0  0  0
    2.7067    0.9029    1.0269 H   0  0  0  1  0  0  0  0  0  0  0  0
    2.7840    1.4045   -0.8454 O   0  0  0  1  0  0  0  0  0  0  0  0
    2.3698    1.2282   -1.6933 H   0  0  0  1  0  0  0  0  0  0  0  0
    2.1814   -0.0855   -0.0645 C   0  0  0  1  0  0  0  0  0  0  0  0
    2.8795   -0.1712   -0.8708 H   0  0  0  1  0  0  0  0  0  0  0  0
    2.8604   -0.7734    0.9883 O   0  0  0  1  0  0  0  0  0  0  0  0
    2.5761   -0.4231    1.8356 H   0  0  0  1  0  0  0  0  0  0  0  0
    1.5131   -0.5490   -0.2021 C   0  0  0  1  0  0  0  0  0  0  0  0
    1.5896   -1.4762    0.3265 H   0  0  0  1  0  0  0  0  0  0  0  0
    0.7608   -0.2254   -0.1041 O   0  0  0  1  0  0  0  0  0  0  0  0
    1.4507   -1.0380   -1.6205 C   0  0  0  1  0  0  0  0  0  0  0  0
    2.4164   -1.3899   -1.9182 H   0  0  0  1  0  0  0  0  0  0  0  0
    1.1503   -0.2350   -2.2607 H   0  0  0  1  0  0  0  0  0  0  0  0
    0.5099   -2.0990   -1.7202 O   0  0  0  1  0  0  0  0  0  0  0  0
    0.1061   -2.2507   -0.8626 H   0  0  0  1  0  0  0  0  0  0  0  0
   -1.3441    0.8128   -1.0692 C   0  0  0  1  0  0  0  0  0  0  0  0
   -1.5109    0.2807   -0.1561 H   0  0  0  1  0  0  0  0  0  0  0  0
   -1.7626    1.5238   -1.0713 C   0  0  0  1  0  0  0  0  0  0  0  0
   -2.2963    1.6589   -0.1538 H   0  0  0  1  0  0  0  0  0  0  0  0
   -0.7449    2.5108   -0.9709 O   0  0  0  1  0  0  0  0  0  0  0  0
   -0.4291    2.7359   -1.8490 H   0  0  0  1  0  0  0  0  0  0  0  0
   -2.2311    1.7253   -1.7196 C   0  0  0  1  0  0  0  0  0  0  0  0
   -2.1201    2.7497   -2.0082 H   0  0  0  1  0  0  0  0  0  0  0  0
   -3.5348    1.6972   -1.1369 O   0  0  0  1  0  0  0  0  0  0  0  0
   -3.8435    2.5956   -0.9986 H   0  0  0  1  0  0  0  0  0  0  0  0
   -2.2804    1.2152   -2.3658 C   0  0  0  1  0  0  0  0  0  0  0  0
   -2.1644    1.7387   -3.2918 H   0  0  0  1  0  0  0  0  0  0  0  0
   -3.6441    0.7920   -2.4242 O   0  0  0  1  0  0  0  0  0  0  0  0
   -3.8162    0.3820   -3.2750 H   0  0  0  1  0  0  0  0  0  0  0  0
   -1.8618    0.5042   -2.3638 C   0  0  0  1  0  0  0  0  0  0  0  0
   -2.5101   -0.3078   -2.6190 H   0  0  0  1  0  0  0  0  0  0  0  0
   -1.3934    0.3026   -1.7155 O   0  0  0  1  0  0  0  0  0  0  0  0
   -0.8400    0.4052   -3.4597 C   0  0  0  1  0  0  0  0  0  0  0  0
   -0.0363    1.0824   -3.2588 H   0  0  0  1  0  0  0  0  0  0  0  0
   -1.2952    0.6582   -4.3943 H   0  0  0  1  0  0  0  0  0  0  0  0
   -0.3346   -0.9219   -3.5243 O   0  0  0  1  0  0  0  0  0  0  0  0
   -1.0320   -1.5418   -3.2988 H   0  0  0  1  0  0  0  0  0  0  0  0
  1  2  1  0  0  0  0
  1  3  1  0  0  0  0
  1  4  1  0  0  0  0
  1 18  1  0  0  0  0
  3 24  1  0  0  0  0
  4  5  1  0  0  0  0
  4  6  1  0  0  0  0
  4  8  1  0  0  0  0
  6  7  1  0  0  0  0
  8  9  1  0  0  0  0
  8 10  1  0  0  0  0
  8 12  1  0  0  0  0
 10 11  1  0  0  0  0
 12 13  1  0  0  0  0
 12 14  1  0  0  0  0
 12 16  1  0  0  0  0
 14 15  1  0  0  0  0
 16 17  1  0  0  0  0
 16 18  1  0  0  0  0
 16 19  1  0  0  0  0
 19 20  1  0  0  0  0
 19 21  1  0  0  0  0
 19 22  1  0  0  0  0
 22 23  1  0  0  0  0
 24 25  1  0  0  0  0
 24 26  1  0  0  0  0
 24 40  1  0  0  0  0
 26 27  1  0  0  0  0
 26 28  1  0  0  0  0
 26 30  1  0  0  0  0
 28 29  1  0  0  0  0
 30 31  1  0  0  0  0
 30 32  1  0  0  0  0
 30 34  1  0  0  0  0
 32 33  1  0  0  0  0
 34 35  1  0  0  0  0
 34 36  1  0  0  0  0
 34 38  1  0  0  0  0
 36 37  1  0  0  0  0
 38 39  1  0  0  0  0
 38 40  1  0  0  0  0
 38 41  1  0  0  0  0
 41 42  1  0  0  0  0
 41 43  1  0  0  0  0
 41 44  1  0  0  0  0
 44 45  1  0  0  0  0
M  END
> <ConfClashScore>
0.0655599 

> <ConfOneFourInteractionScore>
-0.967225 

> <ConfScore>
7.20445 

> <ConfScorePBest>
0.00685847 

> <ConfTolerance>
0.894336 

$$$$
L16.****
  PyMOL2.4          3D                             0

 45 46  0  0  0  0  0  0  0  0999 V2000
    0.6249    0.4961    0.0277 C   0  0  0  1  0  0  0  0  0  0  0  0
    0.1439    1.1395   -0.6791 H   0  0  0  1  0  0  0  0  0  0  0  0
   -0.4004    0.2575    0.9851 O   0  0  0  1  0  0  0  0  0  0  0  0
    1.2141    0.8892    0.4504 C   0  0  0  1  0  0  0  0  0  0  0  0
    0.8345    1.2764    1.3728 H   0  0  0  1  0  0  0  0  0  0  0  0
    1.5201    2.0847   -0.2707 O   0  0  0  1  0  0  0  0  0  0  0  0
    0.7113    2.5739   -0.4381 H   0  0  0  1  0  0  0  0  0  0  0  0
    1.9504    0.5332    0.5577 C   0  0  0  1  0  0  0  0  0  0  0  0
    2.2474    0.5775    1.5847 H   0  0  0  1  0  0  0  0  0  0  0  0
    2.9011    1.4021   -0.0596 O   0  0  0  1  0  0  0  0  0  0  0  0
    3.4488    1.8093    0.6156 H   0  0  0  1  0  0  0  0  0  0  0  0
    2.0972   -0.2150    0.2427 C   0  0  0  1  0  0  0  0  0  0  0  0
    2.5294   -0.8590    0.9798 H   0  0  0  1  0  0  0  0  0  0  0  0
    3.1813   -0.0503   -0.6737 O   0  0  0  1  0  0  0  0  0  0  0  0
    3.5249   -0.9117   -0.9218 H   0  0  0  1  0  0  0  0  0  0  0  0
    1.5080   -0.6081   -0.1800 C   0  0  0  1  0  0  0  0  0  0  0  0
    1.8844   -1.0209   -1.0926 H   0  0  0  1  0  0  0  0  0  0  0  0
    0.7717   -0.2521   -0.2873 O   0  0  0  1  0  0  0  0  0  0  0  0
    1.1699   -1.8472    0.5985 C   0  0  0  1  0  0  0  0  0  0  0  0
    2.0022   -2.5194    0.5762 H   0  0  0  1  0  0  0  0  0  0  0  0
    0.3165   -2.3208    0.1601 H   0  0  0  1  0  0  0  0  0  0  0  0
    0.8783   -1.5014    1.9449 O   0  0  0  1  0  0  0  0  0  0  0  0
   -0.0707   -1.4045    2.0525 H   0  0  0  1  0  0  0  0  0  0  0  0
   -1.6498    0.8259    0.7121 C   0  0  0  1  0  0  0  0  0  0  0  0
   -1.7037    0.7418   -0.3533 H   0  0  0  1  0  0  0  0  0  0  0  0
   -2.1851    0.3108    1.0711 C   0  0  0  1  0  0  0  0  0  0  0  0
   -1.7129   -0.6043    1.3619 H   0  0  0  1  0  0  0  0  0  0  0  0
   -3.0238   -0.1084    0.0030 O   0  0  0  1  0  0  0  0  0  0  0  0
   -2.4876   -0.4979   -0.6916 H   0  0  0  1  0  0  0  0  0  0  0  0
   -2.6942    0.5876    1.6580 C   0  0  0  1  0  0  0  0  0  0  0  0
   -3.7009    0.2807    1.4646 H   0  0  0  1  0  0  0  0  0  0  0  0
   -2.4180   -0.0740    2.8934 O   0  0  0  1  0  0  0  0  0  0  0  0
   -1.4696   -0.1855    2.9922 H   0  0  0  1  0  0  0  0  0  0  0  0
   -2.6675    1.3800    1.8855 C   0  0  0  1  0  0  0  0  0  0  0  0
   -2.6895    1.4964    2.9489 H   0  0  0  1  0  0  0  0  0  0  0  0
   -3.9757    1.8052    1.4982 O   0  0  0  1  0  0  0  0  0  0  0  0
   -4.6108    1.5369    2.1663 H   0  0  0  1  0  0  0  0  0  0  0  0
   -2.1323    1.8950    1.5265 C   0  0  0  1  0  0  0  0  0  0  0  0
   -2.6382    2.7757    1.1898 H   0  0  0  1  0  0  0  0  0  0  0  0
   -1.6232    1.6183    0.9395 O   0  0  0  1  0  0  0  0  0  0  0  0
   -1.2096    2.4722    2.5435 C   0  0  0  1  0  0  0  0  0  0  0  0
   -0.7399    1.6643    3.0647 H   0  0  0  1  0  0  0  0  0  0  0  0
   -1.7905    3.0509    3.2309 H   0  0  0  1  0  0  0  0  0  0  0  0
   -0.1979    3.3021    2.0145 O   0  0  0  1  0  0  0  0  0  0  0  0
    0.1215    3.8942    2.6994 H   0  0  0  1  0  0  0  0  0  0  0  0
  1  2  1  0  0  0  0
  1  3  1  0  0  0  0
  1  4  1  0  0  0  0
  1 18  1  0  0  0  0
  3 24  1  0  0  0  0
  4  5  1  0  0  0  0
  4  6  1  0  0  0  0
  4  8  1  0  0  0  0
  6  7  1  0  0  0  0
  8  9  1  0  0  0  0
  8 10  1  0  0  0  0
  8 12  1  0  0  0  0
 10 11  1  0  0  0  0
 12 13  1  0  0  0  0
 12 14  1  0  0  0  0
 12 16  1  0  0  0  0
 14 15  1  0  0  0  0
 16 17  1  0  0  0  0
 16 18  1  0  0  0  0
 16 19  1  0  0  0  0
 19 20  1  0  0  0  0
 19 21  1  0  0  0  0
 19 22  1  0  0  0  0
 22 23  1  0  0  0  0
 24 25  1  0  0  0  0
 24 26  1  0  0  0  0
 24 40  1  0  0  0  0
 26 27  1  0  0  0  0
 26 28  1  0  0  0  0
 26 30  1  0  0  0  0
 28 29  1  0  0  0  0
 30 31  1  0  0  0  0
 30 32  1  0  0  0  0
 30 34  1  0  0  0  0
 32 33  1  0  0  0  0
 34 35  1  0  0  0  0
 34 36  1  0  0  0  0
 34 38  1  0  0  0  0
 36 37  1  0  0  0  0
 38 39  1  0  0  0  0
 38 40  1  0  0  0  0
 38 41  1  0  0  0  0
 41 42  1  0  0  0  0
 41 43  1  0  0  0  0
 41 44  1  0  0  0  0
 44 45  1  0  0  0  0
M  END
> <ConfClashScore>
0.0646344 

> <ConfOneFourInteractionScore>
-0.982662 

> <ConfScore>
7.22028 

> <ConfScorePBest>
0.00675547 

> <ConfTolerance>
0.791335 

$$$$
L16.****
  PyMOL2.4          3D                             0

 45 46  0  0  0  0  0  0  0  0999 V2000
    0.6860    0.5225   -0.2960 C   0  0  0  1  0  0  0  0  0  0  0  0
    0.3728    0.9944   -1.2038 H   0  0  0  1  0  0  0  0  0  0  0  0
   -0.4578    0.6788    0.5358 O   0  0  0  1  0  0  0  0  0  0  0  0
    1.2613    0.9709    0.0892 C   0  0  0  1  0  0  0  0  0  0  0  0
    1.4763    1.8762   -0.4392 H   0  0  0  1  0  0  0  0  0  0  0  0
    0.5804    1.4504    1.2508 O   0  0  0  1  0  0  0  0  0  0  0  0
    0.4425    2.3973    1.1734 H   0  0  0  1  0  0  0  0  0  0  0  0
    1.9489    0.6084    0.3651 C   0  0  0  1  0  0  0  0  0  0  0  0
    2.1518    0.8906    1.3770 H   0  0  0  1  0  0  0  0  0  0  0  0
    2.9638    1.3161   -0.3485 O   0  0  0  1  0  0  0  0  0  0  0  0
    3.7331    1.4275    0.2148 H   0  0  0  1  0  0  0  0  0  0  0  0
    2.0611   -0.2017    0.2559 C   0  0  0  1  0  0  0  0  0  0  0  0
    2.3975   -0.6779    1.1530 H   0  0  0  1  0  0  0  0  0  0  0  0
    3.1994   -0.3249   -0.5994 O   0  0  0  1  0  0  0  0  0  0  0  0
    3.9109   -0.7612   -0.1250 H   0  0  0  1  0  0  0  0  0  0  0  0
    1.4858   -0.6501   -0.1293 C   0  0  0  1  0  0  0  0  0  0  0  0
    1.9221   -1.2732   -0.8818 H   0  0  0  1  0  0  0  0  0  0  0  0
    0.7982   -0.2875   -0.4052 O   0  0  0  1  0  0  0  0  0  0  0  0
    0.9289   -1.6818    0.8252 C   0  0  0  1  0  0  0  0  0  0  0  0
    0.3029   -1.1873    1.5383 H   0  0  0  1  0  0  0  0  0  0  0  0
    1.7434   -2.1551    1.3326 H   0  0  0  1  0  0  0  0  0  0  0  0
    0.1647   -2.6782    0.1614 O   0  0  0  1  0  0  0  0  0  0  0  0
    0.7175   -3.1329   -0.4783 H   0  0  0  1  0  0  0  0  0  0  0  0
   -1.6635    0.6461   -0.1571 C   0  0  0  1  0  0  0  0  0  0  0  0
   -1.4093    0.0842   -1.0315 H   0  0  0  1  0  0  0  0  0  0  0  0
   -2.2097    0.2396    0.3088 C   0  0  0  1  0  0  0  0  0  0  0  0
   -2.5116   -0.6497   -0.2040 H   0  0  0  1  0  0  0  0  0  0  0  0
   -1.4975   -0.3127    1.4078 O   0  0  0  1  0  0  0  0  0  0  0  0
   -1.3646    0.3636    2.0760 H   0  0  0  1  0  0  0  0  0  0  0  0
   -2.8805    0.6272    0.5920 C   0  0  0  1  0  0  0  0  0  0  0  0
   -2.9468    0.4930    1.6515 H   0  0  0  1  0  0  0  0  0  0  0  0
   -4.0460   -0.0510    0.1570 O   0  0  0  1  0  0  0  0  0  0  0  0
   -4.1596    0.0803   -0.7872 H   0  0  0  1  0  0  0  0  0  0  0  0
   -3.0044    1.4218    0.4088 C   0  0  0  1  0  0  0  0  0  0  0  0
   -3.9941    1.5639    0.0278 H   0  0  0  1  0  0  0  0  0  0  0  0
   -3.0686    2.1373    1.6441 O   0  0  0  1  0  0  0  0  0  0  0  0
   -3.7307    2.8295    1.5794 H   0  0  0  1  0  0  0  0  0  0  0  0
   -2.4582    1.8283   -0.0571 C   0  0  0  1  0  0  0  0  0  0  0  0
   -2.1759    2.7412    0.4244 H   0  0  0  1  0  0  0  0  0  0  0  0
   -1.7874    1.4407   -0.3404 O   0  0  0  1  0  0  0  0  0  0  0  0
   -3.1151    2.3611   -1.2979 C   0  0  0  1  0  0  0  0  0  0  0  0
   -3.4859    1.5451   -1.8824 H   0  0  0  1  0  0  0  0  0  0  0  0
   -2.3995    2.9140   -1.8698 H   0  0  0  1  0  0  0  0  0  0  0  0
   -4.1942    3.2142   -0.9395 O   0  0  0  1  0  0  0  0  0  0  0  0
   -5.0221    2.8209   -1.2252 H   0  0  0  1  0  0  0  0  0  0  0  0
  1  2  1  0  0  0  0
  1  3  1  0  0  0  0
  1  4  1  0  0  0  0
  1 18  1  0  0  0  0
  3 24  1  0  0  0  0
  4  5  1  0  0  0  0
  4  6  1  0  0  0  0
  4  8  1  0  0  0  0
  6  7  1  0  0  0  0
  8  9  1  0  0  0  0
  8 10  1  0  0  0  0
  8 12  1  0  0  0  0
 10 11  1  0  0  0  0
 12 13  1  0  0  0  0
 12 14  1  0  0  0  0
 12 16  1  0  0  0  0
 14 15  1  0  0  0  0
 16 17  1  0  0  0  0
 16 18  1  0  0  0  0
 16 19  1  0  0  0  0
 19 20  1  0  0  0  0
 19 21  1  0  0  0  0
 19 22  1  0  0  0  0
 22 23  1  0  0  0  0
 24 25  1  0  0  0  0
 24 26  1  0  0  0  0
 24 40  1  0  0  0  0
 26 27  1  0  0  0  0
 26 28  1  0  0  0  0
 26 30  1  0  0  0  0
 28 29  1  0  0  0  0
 30 31  1  0  0  0  0
 30 32  1  0  0  0  0
 30 34  1  0  0  0  0
 32 33  1  0  0  0  0
 34 35  1  0  0  0  0
 34 36  1  0  0  0  0
 34 38  1  0  0  0  0
 36 37  1  0  0  0  0
 38 39  1  0  0  0  0
 38 40  1  0  0  0  0
 38 41  1  0  0  0  0
 41 42  1  0  0  0  0
 41 43  1  0  0  0  0
 41 44  1  0  0  0  0
 44 45  1  0  0  0  0
M  END
> <ConfClashScore>
0.0654658 

> <ConfOneFourInteractionScore>
-0.964276 

> <ConfScore>
7.25899 

> <ConfScorePBest>
0.00665247 

> <ConfTolerance>
0.805722 

$$$$
L16.****
  PyMOL2.4          3D                             0

 45 46  0  0  0  0  0  0  0  0999 V2000
    0.6095    0.3286    0.3529 C   0  0  0  1  0  0  0  0  0  0  0  0
   -0.0563    0.1909    1.1791 H   0  0  0  1  0  0  0  0  0  0  0  0
   -0.1715    1.1225   -0.5329 O   0  0  0  1  0  0  0  0  0  0  0  0
    1.2310    0.8324    0.5538 C   0  0  0  1  0  0  0  0  0  0  0  0
    1.1465    1.1596    1.5691 H   0  0  0  1  0  0  0  0  0  0  0  0
    0.9439    2.0311   -0.1679 O   0  0  0  1  0  0  0  0  0  0  0  0
    0.6041    2.6953    0.4362 H   0  0  0  1  0  0  0  0  0  0  0  0
    2.0075    0.6187    0.3758 C   0  0  0  1  0  0  0  0  0  0  0  0
    2.6568    0.7680    1.2131 H   0  0  0  1  0  0  0  0  0  0  0  0
    2.4436    1.6345   -0.5294 O   0  0  0  1  0  0  0  0  0  0  0  0
    3.3841    1.5348   -0.6941 H   0  0  0  1  0  0  0  0  0  0  0  0
    2.1624   -0.0977   -0.0027 C   0  0  0  1  0  0  0  0  0  0  0  0
    2.8740    0.0064   -0.7950 H   0  0  0  1  0  0  0  0  0  0  0  0
    2.9172   -0.7651    1.0110 O   0  0  0  1  0  0  0  0  0  0  0  0
    3.5488   -1.3603    0.6007 H   0  0  0  1  0  0  0  0  0  0  0  0
    1.5410   -0.6015   -0.2037 C   0  0  0  1  0  0  0  0  0  0  0  0
    1.7400   -1.5891    0.1567 H   0  0  0  1  0  0  0  0  0  0  0  0
    0.7644   -0.3879   -0.0256 O   0  0  0  1  0  0  0  0  0  0  0  0
    1.5159   -0.8461   -1.6850 C   0  0  0  1  0  0  0  0  0  0  0  0
    0.6762   -1.4625   -1.9295 H   0  0  0  1  0  0  0  0  0  0  0  0
    2.4187   -1.3394   -1.9793 H   0  0  0  1  0  0  0  0  0  0  0  0
    1.4087    0.3931   -2.3731 O   0  0  0  1  0  0  0  0  0  0  0  0
    2.2849    0.7616   -2.5079 H   0  0  0  1  0  0  0  0  0  0  0  0
   -1.5528    1.0511   -0.2881 C   0  0  0  1  0  0  0  0  0  0  0  0
   -1.7804    0.0444   -0.5702 H   0  0  0  1  0  0  0  0  0  0  0  0
   -1.8650    1.5887   -0.8305 C   0  0  0  1  0  0  0  0  0  0  0  0
   -2.3824    1.0833   -1.6191 H   0  0  0  1  0  0  0  0  0  0  0  0
   -0.7660    2.1686   -1.5205 O   0  0  0  1  0  0  0  0  0  0  0  0
   -0.6603    1.7397   -2.3728 H   0  0  0  1  0  0  0  0  0  0  0  0
   -2.2935    2.2416   -0.5650 C   0  0  0  1  0  0  0  0  0  0  0  0
   -1.9039    3.1352   -1.0062 H   0  0  0  1  0  0  0  0  0  0  0  0
   -3.5801    2.1637   -1.1804 O   0  0  0  1  0  0  0  0  0  0  0  0
   -3.4881    2.2694   -2.1301 H   0  0  0  1  0  0  0  0  0  0  0  0
   -2.4094    2.3563    0.2435 C   0  0  0  1  0  0  0  0  0  0  0  0
   -3.4496    2.5090    0.4424 H   0  0  0  1  0  0  0  0  0  0  0  0
   -1.8696    3.6365    0.5808 O   0  0  0  1  0  0  0  0  0  0  0  0
   -2.3274    4.3183    0.0837 H   0  0  0  1  0  0  0  0  0  0  0  0
   -2.0973    1.8187    0.7859 C   0  0  0  1  0  0  0  0  0  0  0  0
   -1.5796    2.3241    1.5743 H   0  0  0  1  0  0  0  0  0  0  0  0
   -1.6688    1.1658    0.5204 O   0  0  0  1  0  0  0  0  0  0  0  0
   -3.2196    1.1616    1.5413 C   0  0  0  1  0  0  0  0  0  0  0  0
   -3.6264    0.3660    0.9528 H   0  0  0  1  0  0  0  0  0  0  0  0
   -3.9832    1.8835    1.7427 H   0  0  0  1  0  0  0  0  0  0  0  0
   -2.7291    0.6387    2.7674 O   0  0  0  1  0  0  0  0  0  0  0  0
   -2.3016   -0.2058    2.6075 H   0  0  0  1  0  0  0  0  0  0  0  0
  1  2  1  0  0  0  0
  1  3  1  0  0  0  0
  1  4  1  0  0  0  0
  1 18  1  0  0  0  0
  3 24  1  0  0  0  0
  4  5  1  0  0  0  0
  4  6  1  0  0  0  0
  4  8  1  0  0  0  0
  6  7  1  0  0  0  0
  8  9  1  0  0  0  0
  8 10  1  0  0  0  0
  8 12  1  0  0  0  0
 10 11  1  0  0  0  0
 12 13  1  0  0  0  0
 12 14  1  0  0  0  0
 12 16  1  0  0  0  0
 14 15  1  0  0  0  0
 16 17  1  0  0  0  0
 16 18  1  0  0  0  0
 16 19  1  0  0  0  0
 19 20  1  0  0  0  0
 19 21  1  0  0  0  0
 19 22  1  0  0  0  0
 22 23  1  0  0  0  0
 24 25  1  0  0  0  0
 24 26  1  0  0  0  0
 24 40  1  0  0  0  0
 26 27  1  0  0  0  0
 26 28  1  0  0  0  0
 26 30  1  0  0  0  0
 28 29  1  0  0  0  0
 30 31  1  0  0  0  0
 30 32  1  0  0  0  0
 30 34  1  0  0  0  0
 32 33  1  0  0  0  0
 34 35  1  0  0  0  0
 34 36  1  0  0  0  0
 34 38  1  0  0  0  0
 36 37  1  0  0  0  0
 38 39  1  0  0  0  0
 38 40  1  0  0  0  0
 38 41  1  0  0  0  0
 41 42  1  0  0  0  0
 41 43  1  0  0  0  0
 41 44  1  0  0  0  0
 44 45  1  0  0  0  0
M  END
> <ConfClashScore>
0.0657762 

> <ConfOneFourInteractionScore>
-0.960825 

> <ConfScore>
7.29098 

> <ConfScorePBest>
0.00654947 

> <ConfTolerance>
0.999883 

$$$$
L16.****
  PyMOL2.4          3D                             0

 45 46  0  0  0  0  0  0  0  0999 V2000
    0.5884    0.4186    0.0493 C   0  0  0  1  0  0  0  0  0  0  0  0
   -0.1421    0.6892    0.7828 H   0  0  0  1  0  0  0  0  0  0  0  0
   -0.0951    0.6879   -1.1693 O   0  0  0  1  0  0  0  0  0  0  0  0
    1.2248    0.9433    0.0580 C   0  0  0  1  0  0  0  0  0  0  0  0
    1.1177    1.6570   -0.7320 H   0  0  0  1  0  0  0  0  0  0  0  0
    1.0552    1.7728    1.2095 O   0  0  0  1  0  0  0  0  0  0  0  0
    0.8617    2.6711    0.9316 H   0  0  0  1  0  0  0  0  0  0  0  0
    1.9969    0.6532    0.0702 C   0  0  0  1  0  0  0  0  0  0  0  0
    2.6301    1.1638   -0.6249 H   0  0  0  1  0  0  0  0  0  0  0  0
    2.5212    1.0697    1.3318 O   0  0  0  1  0  0  0  0  0  0  0  0
    3.2454    1.6840    1.1909 H   0  0  0  1  0  0  0  0  0  0  0  0
    2.1324   -0.1606    0.0738 C   0  0  0  1  0  0  0  0  0  0  0  0
    2.8212   -0.4214    0.8499 H   0  0  0  1  0  0  0  0  0  0  0  0
    2.8845   -0.4816   -1.0990 O   0  0  0  1  0  0  0  0  0  0  0  0
    3.6257   -1.0433   -0.8605 H   0  0  0  1  0  0  0  0  0  0  0  0
    1.4960   -0.6853    0.0651 C   0  0  0  1  0  0  0  0  0  0  0  0
    1.6321   -1.4355   -0.6857 H   0  0  0  1  0  0  0  0  0  0  0  0
    0.7239   -0.3952    0.0528 O   0  0  0  1  0  0  0  0  0  0  0  0
    1.5429   -1.5125    1.3178 C   0  0  0  1  0  0  0  0  0  0  0  0
    0.7250   -2.2024    1.3192 H   0  0  0  1  0  0  0  0  0  0  0  0
    1.4702   -0.8706    2.1707 H   0  0  0  1  0  0  0  0  0  0  0  0
    2.7668   -2.2313    1.3707 O   0  0  0  1  0  0  0  0  0  0  0  0
    3.3877   -1.7657    1.9358 H   0  0  0  1  0  0  0  0  0  0  0  0
   -0.1898   -0.3664   -2.0693 C   0  0  0  1  0  0  0  0  0  0  0  0
   -0.2350   -1.2155   -1.4197 H   0  0  0  1  0  0  0  0  0  0  0  0
   -0.8864   -0.2918   -2.5050 C   0  0  0  1  0  0  0  0  0  0  0  0
   -1.5522   -1.0973   -2.2752 H   0  0  0  1  0  0  0  0  0  0  0  0
   -1.5544    0.8089   -1.9031 O   0  0  0  1  0  0  0  0  0  0  0  0
   -2.0888    0.4970   -1.1691 H   0  0  0  1  0  0  0  0  0  0  0  0
   -0.8527   -0.1757   -3.3209 C   0  0  0  1  0  0  0  0  0  0  0  0
   -1.4784   -0.8891   -3.8153 H   0  0  0  1  0  0  0  0  0  0  0  0
   -1.5501    1.0416   -3.5895 O   0  0  0  1  0  0  0  0  0  0  0  0
   -0.9370    1.7789   -3.5437 H   0  0  0  1  0  0  0  0  0  0  0  0
   -0.1216   -0.1341   -3.7006 C   0  0  0  1  0  0  0  0  0  0  0  0
   -0.0758    0.6891   -4.3826 H   0  0  0  1  0  0  0  0  0  0  0  0
   -0.0273   -1.2605   -4.5750 O   0  0  0  1  0  0  0  0  0  0  0  0
   -0.1482   -0.9725   -5.4827 H   0  0  0  1  0  0  0  0  0  0  0  0
    0.5749   -0.2087   -3.2649 C   0  0  0  1  0  0  0  0  0  0  0  0
    1.2346   -0.9163   -3.7221 H   0  0  0  1  0  0  0  0  0  0  0  0
    0.5413   -0.3249   -2.4490 O   0  0  0  1  0  0  0  0  0  0  0  0
    1.3575    1.0508   -3.4067 C   0  0  0  1  0  0  0  0  0  0  0  0
    0.7690    1.8550   -3.0173 H   0  0  0  1  0  0  0  0  0  0  0  0
    1.5411    1.2141   -4.4481 H   0  0  0  1  0  0  0  0  0  0  0  0
    2.5993    1.0490   -2.7358 O   0  0  0  1  0  0  0  0  0  0  0  0
    3.1260    1.7940   -3.0345 H   0  0  0  1  0  0  0  0  0  0  0  0
  1  2  1  0  0  0  0
  1  3  1  0  0  0  0
  1  4  1  0  0  0  0
  1 18  1  0  0  0  0
  3 24  1  0  0  0  0
  4  5  1  0  0  0  0
  4  6  1  0  0  0  0
  4  8  1  0  0  0  0
  6  7  1  0  0  0  0
  8  9  1  0  0  0  0
  8 10  1  0  0  0  0
  8 12  1  0  0  0  0
 10 11  1  0  0  0  0
 12 13  1  0  0  0  0
 12 14  1  0  0  0  0
 12 16  1  0  0  0  0
 14 15  1  0  0  0  0
 16 17  1  0  0  0  0
 16 18  1  0  0  0  0
 16 19  1  0  0  0  0
 19 20  1  0  0  0  0
 19 21  1  0  0  0  0
 19 22  1  0  0  0  0
 22 23  1  0  0  0  0
 24 25  1  0  0  0  0
 24 26  1  0  0  0  0
 24 40  1  0  0  0  0
 26 27  1  0  0  0  0
 26 28  1  0  0  0  0
 26 30  1  0  0  0  0
 28 29  1  0  0  0  0
 30 31  1  0  0  0  0
 30 32  1  0  0  0  0
 30 34  1  0  0  0  0
 32 33  1  0  0  0  0
 34 35  1  0  0  0  0
 34 36  1  0  0  0  0
 34 38  1  0  0  0  0
 36 37  1  0  0  0  0
 38 39  1  0  0  0  0
 38 40  1  0  0  0  0
 38 41  1  0  0  0  0
 41 42  1  0  0  0  0
 41 43  1  0  0  0  0
 41 44  1  0  0  0  0
 44 45  1  0  0  0  0
M  END
> <ConfClashScore>
0.064598 

> <ConfOneFourInteractionScore>
-0.96156 

> <ConfScore>
7.30344 

> <ConfScorePBest>
0.00644647 

> <ConfTolerance>
0.983329 

$$$$
L16.****
  PyMOL2.4          3D                             0

 45 46  0  0  0  0  0  0  0  0999 V2000
    0.5955    0.5448    0.2289 C   0  0  0  1  0  0  0  0  0  0  0  0
   -0.0966    1.1397   -0.3296 H   0  0  0  1  0  0  0  0  0  0  0  0
   -0.0733    0.3513    1.4698 O   0  0  0  1  0  0  0  0  0  0  0  0
    1.2897    0.9517    0.4104 C   0  0  0  1  0  0  0  0  0  0  0  0
    1.2147    1.4630    1.3474 H   0  0  0  1  0  0  0  0  0  0  0  0
    1.3632    2.0319   -0.5213 O   0  0  0  1  0  0  0  0  0  0  0  0
    1.4963    1.6836   -1.4059 H   0  0  0  1  0  0  0  0  0  0  0  0
    2.0199    0.5778    0.3249 C   0  0  0  1  0  0  0  0  0  0  0  0
    2.6749    1.1908   -0.2583 H   0  0  0  1  0  0  0  0  0  0  0  0
    2.6557    0.6272    1.6034 O   0  0  0  1  0  0  0  0  0  0  0  0
    2.8434    1.5403    1.8329 H   0  0  0  1  0  0  0  0  0  0  0  0
    2.0559   -0.2021    0.0581 C   0  0  0  1  0  0  0  0  0  0  0  0
    2.7151   -0.7943    0.6578 H   0  0  0  1  0  0  0  0  0  0  0  0
    2.7439   -0.1537   -1.1932 O   0  0  0  1  0  0  0  0  0  0  0  0
    3.6694    0.0517   -1.0423 H   0  0  0  1  0  0  0  0  0  0  0  0
    1.3618   -0.6090   -0.1235 C   0  0  0  1  0  0  0  0  0  0  0  0
    1.4367   -1.1218   -1.0595 H   0  0  0  1  0  0  0  0  0  0  0  0
    0.6315   -0.2350   -0.0379 O   0  0  0  1  0  0  0  0  0  0  0  0
    1.2652   -1.7628    0.8499 C   0  0  0  1  0  0  0  0  0  0  0  0
    1.1602   -1.3694    1.8394 H   0  0  0  1  0  0  0  0  0  0  0  0
    2.1642   -2.3399    0.7885 H   0  0  0  1  0  0  0  0  0  0  0  0
    0.1594   -2.6115    0.5771 O   0  0  0  1  0  0  0  0  0  0  0  0
   -0.2444   -2.3542   -0.2549 H   0  0  0  1  0  0  0  0  0  0  0  0
   -1.3426   -0.2682    1.4086 C   0  0  0  1  0  0  0  0  0  0  0  0
   -1.1922   -1.0271    0.6695 H   0  0  0  1  0  0  0  0  0  0  0  0
   -1.4137   -0.5911    2.1645 C   0  0  0  1  0  0  0  0  0  0  0  0
   -1.3278   -1.6575    2.1476 H   0  0  0  1  0  0  0  0  0  0  0  0
   -0.2013   -0.1983    2.8029 O   0  0  0  1  0  0  0  0  0  0  0  0
   -0.2820    0.7058    3.1154 H   0  0  0  1  0  0  0  0  0  0  0  0
   -2.0212   -0.3428    2.6642 C   0  0  0  1  0  0  0  0  0  0  0  0
   -1.6618   -0.1330    3.6499 H   0  0  0  1  0  0  0  0  0  0  0  0
   -2.7566   -1.5535    2.8589 O   0  0  0  1  0  0  0  0  0  0  0  0
   -2.5021   -1.9522    3.6943 H   0  0  0  1  0  0  0  0  0  0  0  0
   -2.5575    0.2288    2.4071 C   0  0  0  1  0  0  0  0  0  0  0  0
   -3.5674   -0.0492    2.6253 H   0  0  0  1  0  0  0  0  0  0  0  0
   -2.3200    1.2784    3.3462 O   0  0  0  1  0  0  0  0  0  0  0  0
   -3.1223    1.4500    3.8447 H   0  0  0  1  0  0  0  0  0  0  0  0
   -2.4864    0.5516    1.6512 C   0  0  0  1  0  0  0  0  0  0  0  0
   -2.5110    1.6202    1.7013 H   0  0  0  1  0  0  0  0  0  0  0  0
   -1.8789    0.3033    1.1515 O   0  0  0  1  0  0  0  0  0  0  0  0
   -3.6902    0.2838    0.8159 C   0  0  0  1  0  0  0  0  0  0  0  0
   -3.6511    0.9238   -0.0408 H   0  0  0  1  0  0  0  0  0  0  0  0
   -4.5581    0.5172    1.3967 H   0  0  0  1  0  0  0  0  0  0  0  0
   -3.8075   -1.0485    0.3650 O   0  0  0  1  0  0  0  0  0  0  0  0
   -3.3680   -1.1394   -0.4837 H   0  0  0  1  0  0  0  0  0  0  0  0
  1  2  1  0  0  0  0
  1  3  1  0  0  0  0
  1  4  1  0  0  0  0
  1 18  1  0  0  0  0
  3 24  1  0  0  0  0
  4  5  1  0  0  0  0
  4  6  1  0  0  0  0
  4  8  1  0  0  0  0
  6  7  1  0  0  0  0
  8  9  1  0  0  0  0
  8 10  1  0  0  0  0
  8 12  1  0  0  0  0
 10 11  1  0  0  0  0
 12 13  1  0  0  0  0
 12 14  1  0  0  0  0
 12 16  1  0  0  0  0
 14 15  1  0  0  0  0
 16 17  1  0  0  0  0
 16 18  1  0  0  0  0
 16 19  1  0  0  0  0
 19 20  1  0  0  0  0
 19 21  1  0  0  0  0
 19 22  1  0  0  0  0
 22 23  1  0  0  0  0
 24 25  1  0  0  0  0
 24 26  1  0  0  0  0
 24 40  1  0  0  0  0
 26 27  1  0  0  0  0
 26 28  1  0  0  0  0
 26 30  1  0  0  0  0
 28 29  1  0  0  0  0
 30 31  1  0  0  0  0
 30 32  1  0  0  0  0
 30 34  1  0  0  0  0
 32 33  1  0  0  0  0
 34 35  1  0  0  0  0
 34 36  1  0  0  0  0
 34 38  1  0  0  0  0
 36 37  1  0  0  0  0
 38 39  1  0  0  0  0
 38 40  1  0  0  0  0
 38 41  1  0  0  0  0
 41 42  1  0  0  0  0
 41 43  1  0  0  0  0
 41 44  1  0  0  0  0
 44 45  1  0  0  0  0
M  END
> <ConfClashScore>
0.0669158 

> <ConfOneFourInteractionScore>
-0.973638 

> <ConfScore>
7.31492 

> <ConfScorePBest>
0.00634346 

> <ConfTolerance>
0.911804 

$$$$
L16.****
  PyMOL2.4          3D                             0

 45 46  0  0  0  0  0  0  0  0999 V2000
    0.7457    0.4806   -0.0908 C   0  0  0  1  0  0  0  0  0  0  0  0
   -0.0949    0.8379    0.4666 H   0  0  0  1  0  0  0  0  0  0  0  0
    0.4056    0.8618   -1.4279 O   0  0  0  1  0  0  0  0  0  0  0  0
    1.4182    0.9320    0.0650 C   0  0  0  1  0  0  0  0  0  0  0  0
    1.5631    1.6573   -0.7082 H   0  0  0  1  0  0  0  0  0  0  0  0
    1.0346    1.7604    1.1637 O   0  0  0  1  0  0  0  0  0  0  0  0
    0.3997    2.4154    0.8647 H   0  0  0  1  0  0  0  0  0  0  0  0
    2.1321    0.5588    0.2422 C   0  0  0  1  0  0  0  0  0  0  0  0
    2.8981    0.9350   -0.4031 H   0  0  0  1  0  0  0  0  0  0  0  0
    2.5406    1.0912    1.4902 O   0  0  0  1  0  0  0  0  0  0  0  0
    2.9539    1.9468    1.3537 H   0  0  0  1  0  0  0  0  0  0  0  0
    2.1734   -0.2649    0.2636 C   0  0  0  1  0  0  0  0  0  0  0  0
    2.6301   -0.5873    1.1759 H   0  0  0  1  0  0  0  0  0  0  0  0
    3.1247   -0.7133   -0.7042 O   0  0  0  1  0  0  0  0  0  0  0  0
    2.8021   -0.5152   -1.5864 H   0  0  0  1  0  0  0  0  0  0  0  0
    1.5008   -0.7164    0.1077 C   0  0  0  1  0  0  0  0  0  0  0  0
    1.7231   -1.4411   -0.6475 H   0  0  0  1  0  0  0  0  0  0  0  0
    0.7870   -0.3431   -0.0695 O   0  0  0  1  0  0  0  0  0  0  0  0
    1.1251   -1.6209    1.2564 C   0  0  0  1  0  0  0  0  0  0  0  0
    0.7884   -1.0277    2.0808 H   0  0  0  1  0  0  0  0  0  0  0  0
    1.9796   -2.1925    1.5531 H   0  0  0  1  0  0  0  0  0  0  0  0
    0.0851   -2.5014    0.8519 O   0  0  0  1  0  0  0  0  0  0  0  0
    0.1821   -3.3418    1.3055 H   0  0  0  1  0  0  0  0  0  0  0  0
   -0.9587    0.6877   -1.6303 C   0  0  0  1  0  0  0  0  0  0  0  0
   -1.2625    0.1559   -0.7529 H   0  0  0  1  0  0  0  0  0  0  0  0
   -1.2640    1.4539   -1.6469 C   0  0  0  1  0  0  0  0  0  0  0  0
   -1.9202    1.6086   -0.8160 H   0  0  0  1  0  0  0  0  0  0  0  0
   -0.1973    2.3404   -1.3366 O   0  0  0  1  0  0  0  0  0  0  0  0
   -0.4992    3.2476   -1.4222 H   0  0  0  1  0  0  0  0  0  0  0  0
   -1.6051    1.7477   -2.3381 C   0  0  0  1  0  0  0  0  0  0  0  0
   -1.1723    2.6954   -2.5821 H   0  0  0  1  0  0  0  0  0  0  0  0
   -2.9485    2.1242   -2.0320 O   0  0  0  1  0  0  0  0  0  0  0  0
   -2.9490    2.9716   -1.5810 H   0  0  0  1  0  0  0  0  0  0  0  0
   -1.6406    1.2743   -3.0126 C   0  0  0  1  0  0  0  0  0  0  0  0
   -1.3164    1.8065   -3.8824 H   0  0  0  1  0  0  0  0  0  0  0  0
   -3.0412    1.1256   -3.2540 O   0  0  0  1  0  0  0  0  0  0  0  0
   -3.3100    1.7204   -3.9580 H   0  0  0  1  0  0  0  0  0  0  0  0
   -1.3352    0.5081   -2.9960 C   0  0  0  1  0  0  0  0  0  0  0  0
   -2.0584   -0.1846   -3.3730 H   0  0  0  1  0  0  0  0  0  0  0  0
   -0.9941    0.2143   -2.3049 O   0  0  0  1  0  0  0  0  0  0  0  0
   -0.2414    0.3605   -4.0176 C   0  0  0  1  0  0  0  0  0  0  0  0
    0.6583    0.8143   -3.6576 H   0  0  0  1  0  0  0  0  0  0  0  0
   -0.5337    0.8261   -4.9356 H   0  0  0  1  0  0  0  0  0  0  0  0
   -0.0344   -1.0307   -4.2235 O   0  0  0  1  0  0  0  0  0  0  0  0
   -0.7729   -1.3949   -4.7170 H   0  0  0  1  0  0  0  0  0  0  0  0
  1  2  1  0  0  0  0
  1  3  1  0  0  0  0
  1  4  1  0  0  0  0
  1 18  1  0  0  0  0
  3 24  1  0  0  0  0
  4  5  1  0  0  0  0
  4  6  1  0  0  0  0
  4  8  1  0  0  0  0
  6  7  1  0  0  0  0
  8  9  1  0  0  0  0
  8 10  1  0  0  0  0
  8 12  1  0  0  0  0
 10 11  1  0  0  0  0
 12 13  1  0  0  0  0
 12 14  1  0  0  0  0
 12 16  1  0  0  0  0
 14 15  1  0  0  0  0
 16 17  1  0  0  0  0
 16 18  1  0  0  0  0
 16 19  1  0  0  0  0
 19 20  1  0  0  0  0
 19 21  1  0  0  0  0
 19 22  1  0  0  0  0
 22 23  1  0  0  0  0
 24 25  1  0  0  0  0
 24 26  1  0  0  0  0
 24 40  1  0  0  0  0
 26 27  1  0  0  0  0
 26 28  1  0  0  0  0
 26 30  1  0  0  0  0
 28 29  1  0  0  0  0
 30 31  1  0  0  0  0
 30 32  1  0  0  0  0
 30 34  1  0  0  0  0
 32 33  1  0  0  0  0
 34 35  1  0  0  0  0
 34 36  1  0  0  0  0
 34 38  1  0  0  0  0
 36 37  1  0  0  0  0
 38 39  1  0  0  0  0
 38 40  1  0  0  0  0
 38 41  1  0  0  0  0
 41 42  1  0  0  0  0
 41 43  1  0  0  0  0
 41 44  1  0  0  0  0
 44 45  1  0  0  0  0
M  END
> <ConfClashScore>
0.0656212 

> <ConfOneFourInteractionScore>
-0.958096 

> <ConfScore>
7.3743 

> <ConfScorePBest>
0.00624046 

> <ConfTolerance>
0.984393 

$$$$
L16.****
  PyMOL2.4          3D                             0

 45 46  0  0  0  0  0  0  0  0999 V2000
    0.6046    0.3782    0.2427 C   0  0  0  1  0  0  0  0  0  0  0  0
   -0.3313    0.5376   -0.2508 H   0  0  0  1  0  0  0  0  0  0  0  0
    0.3551    0.8821    1.5360 O   0  0  0  1  0  0  0  0  0  0  0  0
    1.1852    0.8943   -0.0346 C   0  0  0  1  0  0  0  0  0  0  0  0
    0.7970    1.4759   -0.8445 H   0  0  0  1  0  0  0  0  0  0  0  0
    1.3570    1.8943    0.9707 O   0  0  0  1  0  0  0  0  0  0  0  0
    0.8245    2.6628    0.7527 H   0  0  0  1  0  0  0  0  0  0  0  0
    1.9326    0.6056   -0.2306 C   0  0  0  1  0  0  0  0  0  0  0  0
    2.2482    0.9699   -1.1859 H   0  0  0  1  0  0  0  0  0  0  0  0
    2.8062    1.3053    0.6575 O   0  0  0  1  0  0  0  0  0  0  0  0
    3.2370    2.0214    0.1851 H   0  0  0  1  0  0  0  0  0  0  0  0
    2.0992   -0.1983   -0.1493 C   0  0  0  1  0  0  0  0  0  0  0  0
    2.5705   -0.5849   -1.0287 H   0  0  0  1  0  0  0  0  0  0  0  0
    3.1694   -0.2253    0.7976 O   0  0  0  1  0  0  0  0  0  0  0  0
    3.5626   -1.1010    0.8118 H   0  0  0  1  0  0  0  0  0  0  0  0
    1.5187   -0.7144    0.1280 C   0  0  0  1  0  0  0  0  0  0  0  0
    1.9090   -1.2635    0.9593 H   0  0  0  1  0  0  0  0  0  0  0  0
    0.7713   -0.4257    0.3239 O   0  0  0  1  0  0  0  0  0  0  0  0
    1.2464   -1.8393   -0.8289 C   0  0  0  1  0  0  0  0  0  0  0  0
    2.1686   -2.1738   -1.2561 H   0  0  0  1  0  0  0  0  0  0  0  0
    0.5966   -1.4954   -1.6063 H   0  0  0  1  0  0  0  0  0  0  0  0
    0.6281   -2.9155   -0.1384 O   0  0  0  1  0  0  0  0  0  0  0  0
    0.1012   -3.4306   -0.7538 H   0  0  0  1  0  0  0  0  0  0  0  0
   -0.9519    0.9057    2.0015 C   0  0  0  1  0  0  0  0  0  0  0  0
   -1.5258    0.8594    1.0996 H   0  0  0  1  0  0  0  0  0  0  0  0
   -1.0242    0.2157    2.4479 C   0  0  0  1  0  0  0  0  0  0  0  0
   -0.1617   -0.3941    2.2766 H   0  0  0  1  0  0  0  0  0  0  0  0
   -2.0371   -0.5894    1.8598 O   0  0  0  1  0  0  0  0  0  0  0  0
   -1.6318   -1.3226    1.3910 H   0  0  0  1  0  0  0  0  0  0  0  0
   -1.1571    0.2616    3.2607 C   0  0  0  1  0  0  0  0  0  0  0  0
   -1.9873   -0.3555    3.5342 H   0  0  0  1  0  0  0  0  0  0  0  0
   -0.0655   -0.4600    3.8333 O   0  0  0  1  0  0  0  0  0  0  0  0
   -0.0911   -1.3714    3.5328 H   0  0  0  1  0  0  0  0  0  0  0  0
   -1.2176    0.9984    3.6265 C   0  0  0  1  0  0  0  0  0  0  0  0
   -0.6056    1.0429    4.5030 H   0  0  0  1  0  0  0  0  0  0  0  0
   -2.5316    0.9446    4.1857 O   0  0  0  1  0  0  0  0  0  0  0  0
   -3.1386    1.4338    3.6255 H   0  0  0  1  0  0  0  0  0  0  0  0
   -1.1454    1.6884    3.1801 C   0  0  0  1  0  0  0  0  0  0  0  0
   -1.9612    2.3497    3.3853 H   0  0  0  1  0  0  0  0  0  0  0  0
   -1.0125    1.6425    2.3673 O   0  0  0  1  0  0  0  0  0  0  0  0
    0.0192    2.5264    3.6311 C   0  0  0  1  0  0  0  0  0  0  0  0
   -0.1274    2.7945    4.6565 H   0  0  0  1  0  0  0  0  0  0  0  0
    0.0571    3.4122    3.0321 H   0  0  0  1  0  0  0  0  0  0  0  0
    1.2504    1.8465    3.5124 O   0  0  0  1  0  0  0  0  0  0  0  0
    1.7344    2.1893    2.7575 H   0  0  0  1  0  0  0  0  0  0  0  0
  1  2  1  0  0  0  0
  1  3  1  0  0  0  0
  1  4  1  0  0  0  0
  1 18  1  0  0  0  0
  3 24  1  0  0  0  0
  4  5  1  0  0  0  0
  4  6  1  0  0  0  0
  4  8  1  0  0  0  0
  6  7  1  0  0  0  0
  8  9  1  0  0  0  0
  8 10  1  0  0  0  0
  8 12  1  0  0  0  0
 10 11  1  0  0  0  0
 12 13  1  0  0  0  0
 12 14  1  0  0  0  0
 12 16  1  0  0  0  0
 14 15  1  0  0  0  0
 16 17  1  0  0  0  0
 16 18  1  0  0  0  0
 16 19  1  0  0  0  0
 19 20  1  0  0  0  0
 19 21  1  0  0  0  0
 19 22  1  0  0  0  0
 22 23  1  0  0  0  0
 24 25  1  0  0  0  0
 24 26  1  0  0  0  0
 24 40  1  0  0  0  0
 26 27  1  0  0  0  0
 26 28  1  0  0  0  0
 26 30  1  0  0  0  0
 28 29  1  0  0  0  0
 30 31  1  0  0  0  0
 30 32  1  0  0  0  0
 30 34  1  0  0  0  0
 32 33  1  0  0  0  0
 34 35  1  0  0  0  0
 34 36  1  0  0  0  0
 34 38  1  0  0  0  0
 36 37  1  0  0  0  0
 38 39  1  0  0  0  0
 38 40  1  0  0  0  0
 38 41  1  0  0  0  0
 41 42  1  0  0  0  0
 41 43  1  0  0  0  0
 41 44  1  0  0  0  0
 44 45  1  0  0  0  0
M  END
> <ConfClashScore>
0.0659564 

> <ConfOneFourInteractionScore>
-0.964708 

> <ConfScore>
7.40449 

> <ConfScorePBest>
0.00613746 

> <ConfTolerance>
0.983176 

$$$$
L16.****
  PyMOL2.4          3D                             0

 45 46  0  0  0  0  0  0  0  0999 V2000
    0.7185    0.4771   -0.0713 C   0  0  0  1  0  0  0  0  0  0  0  0
   -0.0809    0.8528    0.5326 H   0  0  0  1  0  0  0  0  0  0  0  0
    0.2897    0.8330   -1.3806 O   0  0  0  1  0  0  0  0  0  0  0  0
    1.4035    0.9214    0.0460 C   0  0  0  1  0  0  0  0  0  0  0  0
    1.5330    1.5968   -0.7736 H   0  0  0  1  0  0  0  0  0  0  0  0
    1.0990    1.8218    1.0969 O   0  0  0  1  0  0  0  0  0  0  0  0
    0.4386    2.4512    0.7982 H   0  0  0  1  0  0  0  0  0  0  0  0
    2.1185    0.5411    0.2025 C   0  0  0  1  0  0  0  0  0  0  0  0
    2.9031    0.9264   -0.4147 H   0  0  0  1  0  0  0  0  0  0  0  0
    2.4858    1.0342    1.4922 O   0  0  0  1  0  0  0  0  0  0  0  0
    3.0802    1.7814    1.3923 H   0  0  0  1  0  0  0  0  0  0  0  0
    2.1485   -0.2824    0.2416 C   0  0  0  1  0  0  0  0  0  0  0  0
    2.6096   -0.5775    1.1609 H   0  0  0  1  0  0  0  0  0  0  0  0
    3.1299   -0.7089   -0.7058 O   0  0  0  1  0  0  0  0  0  0  0  0
    3.0038   -0.2370   -1.5323 H   0  0  0  1  0  0  0  0  0  0  0  0
    1.4636   -0.7267    0.1242 C   0  0  0  1  0  0  0  0  0  0  0  0
    1.6462   -1.4532   -0.6398 H   0  0  0  1  0  0  0  0  0  0  0  0
    0.7485   -0.3464   -0.0323 O   0  0  0  1  0  0  0  0  0  0  0  0
    1.1239   -1.6300    1.2750 C   0  0  0  1  0  0  0  0  0  0  0  0
    1.9372   -2.2981    1.4674 H   0  0  0  1  0  0  0  0  0  0  0  0
    0.2436   -2.1946    1.0487 H   0  0  0  1  0  0  0  0  0  0  0  0
    0.8937   -0.8071    2.4096 O   0  0  0  1  0  0  0  0  0  0  0  0
    0.1478   -1.1494    2.9077 H   0  0  0  1  0  0  0  0  0  0  0  0
   -1.0731    1.1568   -1.4606 C   0  0  0  1  0  0  0  0  0  0  0  0
   -1.2126    1.7444   -0.5773 H   0  0  0  1  0  0  0  0  0  0  0  0
   -1.4590    0.4311   -1.3895 C   0  0  0  1  0  0  0  0  0  0  0  0
   -0.7896   -0.3384   -1.0661 H   0  0  0  1  0  0  0  0  0  0  0  0
   -2.3262    0.5664   -0.2716 O   0  0  0  1  0  0  0  0  0  0  0  0
   -1.8199    0.4779    0.5393 H   0  0  0  1  0  0  0  0  0  0  0  0
   -1.9545    0.1660   -1.9934 C   0  0  0  1  0  0  0  0  0  0  0  0
   -2.9043   -0.1131   -1.5873 H   0  0  0  1  0  0  0  0  0  0  0  0
   -1.4580   -1.0973   -2.4378 O   0  0  0  1  0  0  0  0  0  0  0  0
   -0.6309   -0.9692   -2.9079 H   0  0  0  1  0  0  0  0  0  0  0  0
   -2.0635    0.6274   -2.6683 C   0  0  0  1  0  0  0  0  0  0  0  0
   -1.8536    0.0345   -3.5339 H   0  0  0  1  0  0  0  0  0  0  0  0
   -3.4697    0.8334   -2.8180 O   0  0  0  1  0  0  0  0  0  0  0  0
   -3.8477    0.1094   -3.3225 H   0  0  0  1  0  0  0  0  0  0  0  0
   -1.6775    1.3531   -2.7394 C   0  0  0  1  0  0  0  0  0  0  0  0
   -2.3815    2.1171   -2.9955 H   0  0  0  1  0  0  0  0  0  0  0  0
   -1.1821    1.6182   -2.1355 O   0  0  0  1  0  0  0  0  0  0  0  0
   -0.7983    1.3668   -3.9566 C   0  0  0  1  0  0  0  0  0  0  0  0
   -1.3242    0.9307   -4.7801 H   0  0  0  1  0  0  0  0  0  0  0  0
    0.0894    0.8026   -3.7605 H   0  0  0  1  0  0  0  0  0  0  0  0
   -0.4457    2.7060   -4.2773 O   0  0  0  1  0  0  0  0  0  0  0  0
   -1.2428    3.2287   -4.3915 H   0  0  0  1  0  0  0  0  0  0  0  0
  1  2  1  0  0  0  0
  1  3  1  0  0  0  0
  1  4  1  0  0  0  0
  1 18  1  0  0  0  0
  3 24  1  0  0  0  0
  4  5  1  0  0  0  0
  4  6  1  0  0  0  0
  4  8  1  0  0  0  0
  6  7  1  0  0  0  0
  8  9  1  0  0  0  0
  8 10  1  0  0  0  0
  8 12  1  0  0  0  0
 10 11  1  0  0  0  0
 12 13  1  0  0  0  0
 12 14  1  0  0  0  0
 12 16  1  0  0  0  0
 14 15  1  0  0  0  0
 16 17  1  0  0  0  0
 16 18  1  0  0  0  0
 16 19  1  0  0  0  0
 19 20  1  0  0  0  0
 19 21  1  0  0  0  0
 19 22  1  0  0  0  0
 22 23  1  0  0  0  0
 24 25  1  0  0  0  0
 24 26  1  0  0  0  0
 24 40  1  0  0  0  0
 26 27  1  0  0  0  0
 26 28  1  0  0  0  0
 26 30  1  0  0  0  0
 28 29  1  0  0  0  0
 30 31  1  0  0  0  0
 30 32  1  0  0  0  0
 30 34  1  0  0  0  0
 32 33  1  0  0  0  0
 34 35  1  0  0  0  0
 34 36  1  0  0  0  0
 34 38  1  0  0  0  0
 36 37  1  0  0  0  0
 38 39  1  0  0  0  0
 38 40  1  0  0  0  0
 38 41  1  0  0  0  0
 41 42  1  0  0  0  0
 41 43  1  0  0  0  0
 41 44  1  0  0  0  0
 44 45  1  0  0  0  0
M  END
> <ConfClashScore>
0.0666282 

> <ConfOneFourInteractionScore>
-0.973836 

> <ConfScore>
7.52382 

> <ConfScorePBest>
0.00603446 

> <ConfTolerance>
1.18483 

$$$$
L16.****
  PyMOL2.4          3D                             0

 45 46  0  0  0  0  0  0  0  0999 V2000
    0.5836    0.4163    0.2553 C   0  0  0  1  0  0  0  0  0  0  0  0
   -0.0989    0.5399    1.0700 H   0  0  0  1  0  0  0  0  0  0  0  0
   -0.1462    0.9817   -0.8275 O   0  0  0  1  0  0  0  0  0  0  0  0
    1.2343    0.9153    0.3444 C   0  0  0  1  0  0  0  0  0  0  0  0
    1.1430    1.5101    1.2292 H   0  0  0  1  0  0  0  0  0  0  0  0
    1.0594    1.8897   -0.6861 O   0  0  0  1  0  0  0  0  0  0  0  0
    0.7294    2.7057   -0.3030 H   0  0  0  1  0  0  0  0  0  0  0  0
    1.9979    0.6127    0.2691 C   0  0  0  1  0  0  0  0  0  0  0  0
    2.5843    1.2212   -0.3873 H   0  0  0  1  0  0  0  0  0  0  0  0
    2.6300    0.8487    1.5296 O   0  0  0  1  0  0  0  0  0  0  0  0
    3.5713    0.6764    1.4533 H   0  0  0  1  0  0  0  0  0  0  0  0
    2.1107   -0.1878    0.1048 C   0  0  0  1  0  0  0  0  0  0  0  0
    2.8555   -0.6200    0.7400 H   0  0  0  1  0  0  0  0  0  0  0  0
    2.7396   -0.2369   -1.1785 O   0  0  0  1  0  0  0  0  0  0  0  0
    3.6369    0.0970   -1.1086 H   0  0  0  1  0  0  0  0  0  0  0  0
    1.4600   -0.6868    0.0156 C   0  0  0  1  0  0  0  0  0  0  0  0
    1.5504   -1.2746   -0.8739 H   0  0  0  1  0  0  0  0  0  0  0  0
    0.6964   -0.3843    0.0909 O   0  0  0  1  0  0  0  0  0  0  0  0
    1.5253   -1.7492    1.0747 C   0  0  0  1  0  0  0  0  0  0  0  0
    2.4012   -2.3457    0.9267 H   0  0  0  1  0  0  0  0  0  0  0  0
    0.6557   -2.3694    1.0104 H   0  0  0  1  0  0  0  0  0  0  0  0
    1.5786   -1.1427    2.3580 O   0  0  0  1  0  0  0  0  0  0  0  0
    0.7719   -0.6454    2.5111 H   0  0  0  1  0  0  0  0  0  0  0  0
   -1.4985    1.2233   -0.5337 C   0  0  0  1  0  0  0  0  0  0  0  0
   -1.8435    0.2527   -0.2441 H   0  0  0  1  0  0  0  0  0  0  0  0
   -1.8106    1.4427   -1.2652 C   0  0  0  1  0  0  0  0  0  0  0  0
   -1.1204    1.2304   -2.0548 H   0  0  0  1  0  0  0  0  0  0  0  0
   -2.8768    0.5455   -1.5563 O   0  0  0  1  0  0  0  0  0  0  0  0
   -2.5796   -0.1100   -2.1915 H   0  0  0  1  0  0  0  0  0  0  0  0
   -2.1499    2.1882   -1.3625 C   0  0  0  1  0  0  0  0  0  0  0  0
   -1.7815    2.6677   -2.2454 H   0  0  0  1  0  0  0  0  0  0  0  0
   -3.5012    1.8982   -1.7232 O   0  0  0  1  0  0  0  0  0  0  0  0
   -3.6183    2.0377   -2.6658 H   0  0  0  1  0  0  0  0  0  0  0  0
   -2.1767    2.7140   -0.7275 C   0  0  0  1  0  0  0  0  0  0  0  0
   -3.1435    3.1612   -0.6260 H   0  0  0  1  0  0  0  0  0  0  0  0
   -1.3654    3.8267   -1.1092 O   0  0  0  1  0  0  0  0  0  0  0  0
   -1.8459    4.6427   -0.9517 H   0  0  0  1  0  0  0  0  0  0  0  0
   -1.8647    2.4945    0.0039 C   0  0  0  1  0  0  0  0  0  0  0  0
   -1.2303    3.2610    0.3977 H   0  0  0  1  0  0  0  0  0  0  0  0
   -1.5253    1.7491    0.1013 O   0  0  0  1  0  0  0  0  0  0  0  0
   -2.9218    2.4673    0.9887 C   0  0  0  1  0  0  0  0  0  0  0  0
   -3.3127    1.4717    1.0156 H   0  0  0  1  0  0  0  0  0  0  0  0
   -3.6852    3.1421    0.6619 H   0  0  0  1  0  0  0  0  0  0  0  0
   -2.5783    2.8201    2.2927 O   0  0  0  1  0  0  0  0  0  0  0  0
   -1.8235    3.4130    2.2761 H   0  0  0  1  0  0  0  0  0  0  0  0
  1  2  1  0  0  0  0
  1  3  1  0  0  0  0
  1  4  1  0  0  0  0
  1 18  1  0  0  0  0
  3 24  1  0  0  0  0
  4  5  1  0  0  0  0
  4  6  1  0  0  0  0
  4  8  1  0  0  0  0
  6  7  1  0  0  0  0
  8  9  1  0  0  0  0
  8 10  1  0  0  0  0
  8 12  1  0  0  0  0
 10 11  1  0  0  0  0
 12 13  1  0  0  0  0
 12 14  1  0  0  0  0
 12 16  1  0  0  0  0
 14 15  1  0  0  0  0
 16 17  1  0  0  0  0
 16 18  1  0  0  0  0
 16 19  1  0  0  0  0
 19 20  1  0  0  0  0
 19 21  1  0  0  0  0
 19 22  1  0  0  0  0
 22 23  1  0  0  0  0
 24 25  1  0  0  0  0
 24 26  1  0  0  0  0
 24 40  1  0  0  0  0
 26 27  1  0  0  0  0
 26 28  1  0  0  0  0
 26 30  1  0  0  0  0
 28 29  1  0  0  0  0
 30 31  1  0  0  0  0
 30 32  1  0  0  0  0
 30 34  1  0  0  0  0
 32 33  1  0  0  0  0
 34 35  1  0  0  0  0
 34 36  1  0  0  0  0
 34 38  1  0  0  0  0
 36 37  1  0  0  0  0
 38 39  1  0  0  0  0
 38 40  1  0  0  0  0
 38 41  1  0  0  0  0
 41 42  1  0  0  0  0
 41 43  1  0  0  0  0
 41 44  1  0  0  0  0
 44 45  1  0  0  0  0
M  END
> <ConfClashScore>
0.067263 

> <ConfOneFourInteractionScore>
-0.963972 

> <ConfScore>
7.53667 

> <ConfScorePBest>
0.00593146 

> <ConfTolerance>
1.04831 

$$$$
L16.****
  PyMOL2.4          3D                             0

 45 46  0  0  0  0  0  0  0  0999 V2000
    0.6090    0.3944   -0.0360 C   0  0  0  1  0  0  0  0  0  0  0  0
   -0.1234    0.7851   -0.7112 H   0  0  0  1  0  0  0  0  0  0  0  0
   -0.0866    0.3536    1.2057 O   0  0  0  1  0  0  0  0  0  0  0  0
    1.2236    0.9263    0.1045 C   0  0  0  1  0  0  0  0  0  0  0  0
    1.1369    1.7392   -0.5858 H   0  0  0  1  0  0  0  0  0  0  0  0
    0.9838    1.5930    1.3283 O   0  0  0  1  0  0  0  0  0  0  0  0
    1.5663    2.3529    1.3988 H   0  0  0  1  0  0  0  0  0  0  0  0
    2.0048    0.6617    0.1035 C   0  0  0  1  0  0  0  0  0  0  0  0
    2.5296    1.0149    0.9664 H   0  0  0  1  0  0  0  0  0  0  0  0
    2.6156    1.4141   -0.9418 O   0  0  0  1  0  0  0  0  0  0  0  0
    3.5702    1.3360   -0.8772 H   0  0  0  1  0  0  0  0  0  0  0  0
    2.1712   -0.1339   -0.0379 C   0  0  0  1  0  0  0  0  0  0  0  0
    2.9645   -0.2513   -0.7463 H   0  0  0  1  0  0  0  0  0  0  0  0
    2.7849   -0.5614    1.1798 O   0  0  0  1  0  0  0  0  0  0  0  0
    2.1577   -0.4770    1.9016 H   0  0  0  1  0  0  0  0  0  0  0  0
    1.5566   -0.6658   -0.1784 C   0  0  0  1  0  0  0  0  0  0  0  0
    1.6584   -1.5255    0.4505 H   0  0  0  1  0  0  0  0  0  0  0  0
    0.7754   -0.4011   -0.1773 O   0  0  0  1  0  0  0  0  0  0  0  0
    1.7645   -1.2801   -1.5353 C   0  0  0  1  0  0  0  0  0  0  0  0
    2.8115   -1.4459   -1.6804 H   0  0  0  1  0  0  0  0  0  0  0  0
    1.4041   -0.6001   -2.2788 H   0  0  0  1  0  0  0  0  0  0  0  0
    1.0826   -2.5176   -1.6807 O   0  0  0  1  0  0  0  0  0  0  0  0
    1.5716   -3.0841   -2.2820 H   0  0  0  1  0  0  0  0  0  0  0  0
   -1.4181   -0.0245    1.0384 C   0  0  0  1  0  0  0  0  0  0  0  0
   -1.5808    0.1248   -0.0086 H   0  0  0  1  0  0  0  0  0  0  0  0
   -1.4025   -0.8237    1.2424 C   0  0  0  1  0  0  0  0  0  0  0  0
   -0.3957   -1.1858    1.2533 H   0  0  0  1  0  0  0  0  0  0  0  0
   -1.9261   -1.4663    0.0878 O   0  0  0  1  0  0  0  0  0  0  0  0
   -1.2922   -1.4016   -0.6302 H   0  0  0  1  0  0  0  0  0  0  0  0
   -1.8099   -1.0878    1.9092 C   0  0  0  1  0  0  0  0  0  0  0  0
   -1.1650   -1.6785    2.5257 H   0  0  0  1  0  0  0  0  0  0  0  0
   -2.7863   -2.0521    1.5131 O   0  0  0  1  0  0  0  0  0  0  0  0
   -2.3535   -2.8885    1.3269 H   0  0  0  1  0  0  0  0  0  0  0  0
   -2.2329   -0.5516    2.3718 C   0  0  0  1  0  0  0  0  0  0  0  0
   -3.2191   -0.9146    2.5732 H   0  0  0  1  0  0  0  0  0  0  0  0
   -1.6444   -0.5579    3.6740 O   0  0  0  1  0  0  0  0  0  0  0  0
   -2.1836   -0.0350    4.2718 H   0  0  0  1  0  0  0  0  0  0  0  0
   -2.2485    0.2476    2.1678 C   0  0  0  1  0  0  0  0  0  0  0  0
   -1.9696    0.8387    3.0150 H   0  0  0  1  0  0  0  0  0  0  0  0
   -1.8411    0.5116    1.5009 O   0  0  0  1  0  0  0  0  0  0  0  0
   -3.6407    0.7569    1.9270 C   0  0  0  1  0  0  0  0  0  0  0  0
   -4.0356    0.3301    1.0288 H   0  0  0  1  0  0  0  0  0  0  0  0
   -3.6297    1.8234    1.8409 H   0  0  0  1  0  0  0  0  0  0  0  0
   -4.4375    0.3673    3.0416 O   0  0  0  1  0  0  0  0  0  0  0  0
   -5.0634   -0.3072    2.7679 H   0  0  0  1  0  0  0  0  0  0  0  0
  1  2  1  0  0  0  0
  1  3  1  0  0  0  0
  1  4  1  0  0  0  0
  1 18  1  0  0  0  0
  3 24  1  0  0  0  0
  4  5  1  0  0  0  0
  4  6  1  0  0  0  0
  4  8  1  0  0  0  0
  6  7  1  0  0  0  0
  8  9  1  0  0  0  0
  8 10  1  0  0  0  0
  8 12  1  0  0  0  0
 10 11  1  0  0  0  0
 12 13  1  0  0  0  0
 12 14  1  0  0  0  0
 12 16  1  0  0  0  0
 14 15  1  0  0  0  0
 16 17  1  0  0  0  0
 16 18  1  0  0  0  0
 16 19  1  0  0  0  0
 19 20  1  0  0  0  0
 19 21  1  0  0  0  0
 19 22  1  0  0  0  0
 22 23  1  0  0  0  0
 24 25  1  0  0  0  0
 24 26  1  0  0  0  0
 24 40  1  0  0  0  0
 26 27  1  0  0  0  0
 26 28  1  0  0  0  0
 26 30  1  0  0  0  0
 28 29  1  0  0  0  0
 30 31  1  0  0  0  0
 30 32  1  0  0  0  0
 30 34  1  0  0  0  0
 32 33  1  0  0  0  0
 34 35  1  0  0  0  0
 34 36  1  0  0  0  0
 34 38  1  0  0  0  0
 36 37  1  0  0  0  0
 38 39  1  0  0  0  0
 38 40  1  0  0  0  0
 38 41  1  0  0  0  0
 41 42  1  0  0  0  0
 41 43  1  0  0  0  0
 41 44  1  0  0  0  0
 44 45  1  0  0  0  0
M  END
> <ConfClashScore>
0.0671636 

> <ConfOneFourInteractionScore>
-0.954844 

> <ConfScore>
7.59525 

> <ConfScorePBest>
0.00582846 

> <ConfTolerance>
1.08829 

$$$$
L16.****
  PyMOL2.4          3D                             0

 45 46  0  0  0  0  0  0  0  0999 V2000
    0.6568    0.5452   -0.1635 C   0  0  0  1  0  0  0  0  0  0  0  0
    0.1547    1.0502   -0.9622 H   0  0  0  1  0  0  0  0  0  0  0  0
   -0.3429    0.5119    0.8485 O   0  0  0  1  0  0  0  0  0  0  0  0
    1.2434    1.0214    0.1674 C   0  0  0  1  0  0  0  0  0  0  0  0
    1.2822    1.9833   -0.2998 H   0  0  0  1  0  0  0  0  0  0  0  0
    0.7216    1.3329    1.4636 O   0  0  0  1  0  0  0  0  0  0  0  0
    1.1936    2.0860    1.8265 H   0  0  0  1  0  0  0  0  0  0  0  0
    1.9980    0.7145    0.2964 C   0  0  0  1  0  0  0  0  0  0  0  0
    2.3084    0.9105    1.3015 H   0  0  0  1  0  0  0  0  0  0  0  0
    2.9491    1.4768   -0.4482 O   0  0  0  1  0  0  0  0  0  0  0  0
    2.8530    1.2833   -1.3836 H   0  0  0  1  0  0  0  0  0  0  0  0
    2.1659   -0.0677    0.0949 C   0  0  0  1  0  0  0  0  0  0  0  0
    3.0746   -0.1326   -0.4664 H   0  0  0  1  0  0  0  0  0  0  0  0
    2.4997   -0.7906    1.2827 O   0  0  0  1  0  0  0  0  0  0  0  0
    3.2855   -1.3194    1.1259 H   0  0  0  1  0  0  0  0  0  0  0  0
    1.5793   -0.5439   -0.2360 C   0  0  0  1  0  0  0  0  0  0  0  0
    1.5002   -1.4497    0.3280 H   0  0  0  1  0  0  0  0  0  0  0  0
    0.8246   -0.2370   -0.3651 O   0  0  0  1  0  0  0  0  0  0  0  0
    1.9152   -1.1003   -1.5985 C   0  0  0  1  0  0  0  0  0  0  0  0
    2.8825   -1.5556   -1.5545 H   0  0  0  1  0  0  0  0  0  0  0  0
    1.9309   -0.2957   -2.3036 H   0  0  0  1  0  0  0  0  0  0  0  0
    0.9743   -2.0706   -2.0352 O   0  0  0  1  0  0  0  0  0  0  0  0
    1.4369   -2.8690   -2.3001 H   0  0  0  1  0  0  0  0  0  0  0  0
   -0.7058   -0.7973    1.2494 C   0  0  0  1  0  0  0  0  0  0  0  0
    0.2170   -1.1852    1.6274 H   0  0  0  1  0  0  0  0  0  0  0  0
   -1.2439   -0.6489    1.8570 C   0  0  0  1  0  0  0  0  0  0  0  0
   -1.2106    0.3824    2.1403 H   0  0  0  1  0  0  0  0  0  0  0  0
   -0.6459   -1.2756    2.9838 O   0  0  0  1  0  0  0  0  0  0  0  0
   -0.9084   -2.1986    3.0140 H   0  0  0  1  0  0  0  0  0  0  0  0
   -2.0257   -0.9025    1.7874 C   0  0  0  1  0  0  0  0  0  0  0  0
   -2.3063   -1.4567    2.6586 H   0  0  0  1  0  0  0  0  0  0  0  0
   -2.8456    0.2596    1.9190 O   0  0  0  1  0  0  0  0  0  0  0  0
   -3.6805    0.0183    2.3267 H   0  0  0  1  0  0  0  0  0  0  0  0
   -2.2688   -1.3047    1.1096 C   0  0  0  1  0  0  0  0  0  0  0  0
   -2.7623   -2.2131    1.3855 H   0  0  0  1  0  0  0  0  0  0  0  0
   -3.3393   -0.5613    0.5611 O   0  0  0  1  0  0  0  0  0  0  0  0
   -2.9958    0.2245    0.1295 H   0  0  0  1  0  0  0  0  0  0  0  0
   -1.7307   -1.4532    0.5020 C   0  0  0  1  0  0  0  0  0  0  0  0
   -2.1390   -1.1580   -0.4419 H   0  0  0  1  0  0  0  0  0  0  0  0
   -0.9489   -1.1995    0.5716 O   0  0  0  1  0  0  0  0  0  0  0  0
   -1.5826   -2.9441    0.3002 C   0  0  0  1  0  0  0  0  0  0  0  0
   -0.9161   -3.1381   -0.5141 H   0  0  0  1  0  0  0  0  0  0  0  0
   -2.5369   -3.3812    0.0926 H   0  0  0  1  0  0  0  0  0  0  0  0
   -1.0513   -3.4869    1.5019 O   0  0  0  1  0  0  0  0  0  0  0  0
   -1.7452   -3.5416    2.1630 H   0  0  0  1  0  0  0  0  0  0  0  0
  1  2  1  0  0  0  0
  1  3  1  0  0  0  0
  1  4  1  0  0  0  0
  1 18  1  0  0  0  0
  3 24  1  0  0  0  0
  4  5  1  0  0  0  0
  4  6  1  0  0  0  0
  4  8  1  0  0  0  0
  6  7  1  0  0  0  0
  8  9  1  0  0  0  0
  8 10  1  0  0  0  0
  8 12  1  0  0  0  0
 10 11  1  0  0  0  0
 12 13  1  0  0  0  0
 12 14  1  0  0  0  0
 12 16  1  0  0  0  0
 14 15  1  0  0  0  0
 16 17  1  0  0  0  0
 16 18  1  0  0  0  0
 16 19  1  0  0  0  0
 19 20  1  0  0  0  0
 19 21  1  0  0  0  0
 19 22  1  0  0  0  0
 22 23  1  0  0  0  0
 24 25  1  0  0  0  0
 24 26  1  0  0  0  0
 24 40  1  0  0  0  0
 26 27  1  0  0  0  0
 26 28  1  0  0  0  0
 26 30  1  0  0  0  0
 28 29  1  0  0  0  0
 30 31  1  0  0  0  0
 30 32  1  0  0  0  0
 30 34  1  0  0  0  0
 32 33  1  0  0  0  0
 34 35  1  0  0  0  0
 34 36  1  0  0  0  0
 34 38  1  0  0  0  0
 36 37  1  0  0  0  0
 38 39  1  0  0  0  0
 38 40  1  0  0  0  0
 38 41  1  0  0  0  0
 41 42  1  0  0  0  0
 41 43  1  0  0  0  0
 41 44  1  0  0  0  0
 44 45  1  0  0  0  0
M  END
> <ConfClashScore>
0.0684747 

> <ConfOneFourInteractionScore>
-0.967973 

> <ConfScore>
7.6051 

> <ConfScorePBest>
0.00572546 

> <ConfTolerance>
1.10227 

$$$$
L16.****
  PyMOL2.4          3D                             0

 45 46  0  0  0  0  0  0  0  0999 V2000
    0.7841    0.4502   -0.3286 C   0  0  0  1  0  0  0  0  0  0  0  0
    0.4020    0.7061   -1.2947 H   0  0  0  1  0  0  0  0  0  0  0  0
   -0.2719    0.8411    0.5414 O   0  0  0  1  0  0  0  0  0  0  0  0
    1.4185    0.9306   -0.1114 C   0  0  0  1  0  0  0  0  0  0  0  0
    1.6668    1.6159   -0.8947 H   0  0  0  1  0  0  0  0  0  0  0  0
    0.8195    1.7851    0.8506 O   0  0  0  1  0  0  0  0  0  0  0  0
    0.6161    2.6311    0.4451 H   0  0  0  1  0  0  0  0  0  0  0  0
    2.0978    0.5931    0.2128 C   0  0  0  1  0  0  0  0  0  0  0  0
    2.9841    0.9773   -0.2473 H   0  0  0  1  0  0  0  0  0  0  0  0
    2.1935    1.1179    1.5382 O   0  0  0  1  0  0  0  0  0  0  0  0
    3.1172    1.2446    1.7667 H   0  0  0  1  0  0  0  0  0  0  0  0
    2.1426   -0.2237    0.3196 C   0  0  0  1  0  0  0  0  0  0  0  0
    2.5367   -0.4846    1.2795 H   0  0  0  1  0  0  0  0  0  0  0  0
    3.1725   -0.6604   -0.5691 O   0  0  0  1  0  0  0  0  0  0  0  0
    3.0526   -0.2462   -1.4268 H   0  0  0  1  0  0  0  0  0  0  0  0
    1.5081   -0.7041    0.1024 C   0  0  0  1  0  0  0  0  0  0  0  0
    1.8382   -1.5402   -0.4780 H   0  0  0  1  0  0  0  0  0  0  0  0
    0.8289   -0.3666   -0.2218 O   0  0  0  1  0  0  0  0  0  0  0  0
    0.9556   -1.3923    1.3280 C   0  0  0  1  0  0  0  0  0  0  0  0
    1.7310   -1.9624    1.7957 H   0  0  0  1  0  0  0  0  0  0  0  0
    0.1571   -2.0439    1.0404 H   0  0  0  1  0  0  0  0  0  0  0  0
    0.4666   -0.4214    2.2422 O   0  0  0  1  0  0  0  0  0  0  0  0
    1.1917   -0.0926    2.7787 H   0  0  0  1  0  0  0  0  0  0  0  0
   -1.5854    0.5187    0.1203 C   0  0  0  1  0  0  0  0  0  0  0  0
   -1.9267   -0.1230    0.9056 H   0  0  0  1  0  0  0  0  0  0  0  0
   -1.9598    1.2535    0.1448 C   0  0  0  1  0  0  0  0  0  0  0  0
   -1.3692    1.9668    0.6808 H   0  0  0  1  0  0  0  0  0  0  0  0
   -3.1195    1.1572    0.9607 O   0  0  0  1  0  0  0  0  0  0  0  0
   -2.9824    0.4876    1.6348 H   0  0  0  1  0  0  0  0  0  0  0  0
   -2.2670    1.5836   -0.5459 C   0  0  0  1  0  0  0  0  0  0  0  0
   -1.8883    2.5775   -0.6636 H   0  0  0  1  0  0  0  0  0  0  0  0
   -3.6503    1.8444   -0.3042 O   0  0  0  1  0  0  0  0  0  0  0  0
   -3.7933    2.7922   -0.2510 H   0  0  0  1  0  0  0  0  0  0  0  0
   -2.1993    1.1782   -1.2610 C   0  0  0  1  0  0  0  0  0  0  0  0
   -3.1473    1.1312   -1.7551 H   0  0  0  1  0  0  0  0  0  0  0  0
   -1.4732    2.0649   -2.1145 O   0  0  0  1  0  0  0  0  0  0  0  0
   -1.9770    2.2222   -2.9163 H   0  0  0  1  0  0  0  0  0  0  0  0
   -1.8250    0.4434   -1.2854 C   0  0  0  1  0  0  0  0  0  0  0  0
   -1.1146    0.3983   -2.0844 H   0  0  0  1  0  0  0  0  0  0  0  0
   -1.5177    0.1132   -0.5948 O   0  0  0  1  0  0  0  0  0  0  0  0
   -2.8153   -0.6019   -1.7114 C   0  0  0  1  0  0  0  0  0  0  0  0
   -2.3041   -1.5253   -1.8875 H   0  0  0  1  0  0  0  0  0  0  0  0
   -3.3015   -0.2857   -2.6106 H   0  0  0  1  0  0  0  0  0  0  0  0
   -3.7858   -0.7866   -0.6894 O   0  0  0  1  0  0  0  0  0  0  0  0
   -3.5829   -1.5842   -0.1951 H   0  0  0  1  0  0  0  0  0  0  0  0
  1  2  1  0  0  0  0
  1  3  1  0  0  0  0
  1  4  1  0  0  0  0
  1 18  1  0  0  0  0
  3 24  1  0  0  0  0
  4  5  1  0  0  0  0
  4  6  1  0  0  0  0
  4  8  1  0  0  0  0
  6  7  1  0  0  0  0
  8  9  1  0  0  0  0
  8 10  1  0  0  0  0
  8 12  1  0  0  0  0
 10 11  1  0  0  0  0
 12 13  1  0  0  0  0
 12 14  1  0  0  0  0
 12 16  1  0  0  0  0
 14 15  1  0  0  0  0
 16 17  1  0  0  0  0
 16 18  1  0  0  0  0
 16 19  1  0  0  0  0
 19 20  1  0  0  0  0
 19 21  1  0  0  0  0
 19 22  1  0  0  0  0
 22 23  1  0  0  0  0
 24 25  1  0  0  0  0
 24 26  1  0  0  0  0
 24 40  1  0  0  0  0
 26 27  1  0  0  0  0
 26 28  1  0  0  0  0
 26 30  1  0  0  0  0
 28 29  1  0  0  0  0
 30 31  1  0  0  0  0
 30 32  1  0  0  0  0
 30 34  1  0  0  0  0
 32 33  1  0  0  0  0
 34 35  1  0  0  0  0
 34 36  1  0  0  0  0
 34 38  1  0  0  0  0
 36 37  1  0  0  0  0
 38 39  1  0  0  0  0
 38 40  1  0  0  0  0
 38 41  1  0  0  0  0
 41 42  1  0  0  0  0
 41 43  1  0  0  0  0
 41 44  1  0  0  0  0
 44 45  1  0  0  0  0
M  END
> <ConfClashScore>
0.068775 

> <ConfOneFourInteractionScore>
-0.97112 

> <ConfScore>
7.63174 

> <ConfScorePBest>
0.00562246 

> <ConfTolerance>
1.05021 

$$$$
L16.****
  PyMOL2.4          3D                             0

 45 46  0  0  0  0  0  0  0  0999 V2000
    0.5842    0.3924    0.3684 C   0  0  0  1  0  0  0  0  0  0  0  0
   -0.0846    0.5587    1.1869 H   0  0  0  1  0  0  0  0  0  0  0  0
   -0.2001    0.7977   -0.7476 O   0  0  0  1  0  0  0  0  0  0  0  0
    1.2157    0.9226    0.3898 C   0  0  0  1  0  0  0  0  0  0  0  0
    1.1302    1.6066    1.2081 H   0  0  0  1  0  0  0  0  0  0  0  0
    0.9382    1.7573   -0.7356 O   0  0  0  1  0  0  0  0  0  0  0  0
    0.7301    2.6444   -0.4331 H   0  0  0  1  0  0  0  0  0  0  0  0
    1.9879    0.6460    0.3029 C   0  0  0  1  0  0  0  0  0  0  0  0
    2.4777    1.1987   -0.4714 H   0  0  0  1  0  0  0  0  0  0  0  0
    2.7425    1.0504    1.4468 O   0  0  0  1  0  0  0  0  0  0  0  0
    3.6254    1.3096    1.1730 H   0  0  0  1  0  0  0  0  0  0  0  0
    2.1285   -0.1597    0.1947 C   0  0  0  1  0  0  0  0  0  0  0  0
    2.8912   -0.5047    0.8611 H   0  0  0  1  0  0  0  0  0  0  0  0
    2.7726   -0.2796   -1.0745 O   0  0  0  1  0  0  0  0  0  0  0  0
    3.6462   -0.6594   -0.9559 H   0  0  0  1  0  0  0  0  0  0  0  0
    1.4969   -0.6898    0.1733 C   0  0  0  1  0  0  0  0  0  0  0  0
    1.6775   -1.5214    0.8220 H   0  0  0  1  0  0  0  0  0  0  0  0
    0.7247   -0.4133    0.2602 O   0  0  0  1  0  0  0  0  0  0  0  0
    1.3783   -1.3815   -1.1569 C   0  0  0  1  0  0  0  0  0  0  0  0
    0.5522   -2.0605   -1.1183 H   0  0  0  1  0  0  0  0  0  0  0  0
    2.2802   -1.9266   -1.3421 H   0  0  0  1  0  0  0  0  0  0  0  0
    1.1692   -0.4697   -2.2257 O   0  0  0  1  0  0  0  0  0  0  0  0
    0.5175   -0.8301   -2.8316 H   0  0  0  1  0  0  0  0  0  0  0  0
   -1.5761    0.5353   -0.6699 C   0  0  0  1  0  0  0  0  0  0  0  0
   -1.5886   -0.5006   -0.4021 H   0  0  0  1  0  0  0  0  0  0  0  0
   -1.8466    0.6379   -1.4425 C   0  0  0  1  0  0  0  0  0  0  0  0
   -1.0347    0.6996   -2.1367 H   0  0  0  1  0  0  0  0  0  0  0  0
   -2.4575   -0.5943   -1.8012 O   0  0  0  1  0  0  0  0  0  0  0  0
   -3.0886   -0.8483   -1.1239 H   0  0  0  1  0  0  0  0  0  0  0  0
   -2.4267    1.2012   -1.6056 C   0  0  0  1  0  0  0  0  0  0  0  0
   -3.2358    0.7213   -2.1154 H   0  0  0  1  0  0  0  0  0  0  0  0
   -1.9417    2.0537   -2.6243 O   0  0  0  1  0  0  0  0  0  0  0  0
   -2.3942    1.8581   -3.4481 H   0  0  0  1  0  0  0  0  0  0  0  0
   -2.7359    1.6618   -0.9951 C   0  0  0  1  0  0  0  0  0  0  0  0
   -3.8052    1.6800   -1.0297 H   0  0  0  1  0  0  0  0  0  0  0  0
   -2.4059    3.0208   -1.2887 O   0  0  0  1  0  0  0  0  0  0  0  0
   -3.0892    3.5987   -0.9411 H   0  0  0  1  0  0  0  0  0  0  0  0
   -2.4653    1.5592   -0.2225 C   0  0  0  1  0  0  0  0  0  0  0  0
   -2.1908    2.5032    0.1997 H   0  0  0  1  0  0  0  0  0  0  0  0
   -1.8853    0.9959   -0.0594 O   0  0  0  1  0  0  0  0  0  0  0  0
   -3.6002    1.1647    0.6783 C   0  0  0  1  0  0  0  0  0  0  0  0
   -4.3477    1.9301    0.6645 H   0  0  0  1  0  0  0  0  0  0  0  0
   -3.2351    1.0398    1.6763 H   0  0  0  1  0  0  0  0  0  0  0  0
   -4.1674   -0.0578    0.2263 O   0  0  0  1  0  0  0  0  0  0  0  0
   -4.4584    0.0408   -0.6832 H   0  0  0  1  0  0  0  0  0  0  0  0
  1  2  1  0  0  0  0
  1  3  1  0  0  0  0
  1  4  1  0  0  0  0
  1 18  1  0  0  0  0
  3 24  1  0  0  0  0
  4  5  1  0  0  0  0
  4  6  1  0  0  0  0
  4  8  1  0  0  0  0
  6  7  1  0  0  0  0
  8  9  1  0  0  0  0
  8 10  1  0  0  0  0
  8 12  1  0  0  0  0
 10 11  1  0  0  0  0
 12 13  1  0  0  0  0
 12 14  1  0  0  0  0
 12 16  1  0  0  0  0
 14 15  1  0  0  0  0
 16 17  1  0  0  0  0
 16 18  1  0  0  0  0
 16 19  1  0  0  0  0
 19 20  1  0  0  0  0
 19 21  1  0  0  0  0
 19 22  1  0  0  0  0
 22 23  1  0  0  0  0
 24 25  1  0  0  0  0
 24 26  1  0  0  0  0
 24 40  1  0  0  0  0
 26 27  1  0  0  0  0
 26 28  1  0  0  0  0
 26 30  1  0  0  0  0
 28 29  1  0  0  0  0
 30 31  1  0  0  0  0
 30 32  1  0  0  0  0
 30 34  1  0  0  0  0
 32 33  1  0  0  0  0
 34 35  1  0  0  0  0
 34 36  1  0  0  0  0
 34 38  1  0  0  0  0
 36 37  1  0  0  0  0
 38 39  1  0  0  0  0
 38 40  1  0  0  0  0
 38 41  1  0  0  0  0
 41 42  1  0  0  0  0
 41 43  1  0  0  0  0
 41 44  1  0  0  0  0
 44 45  1  0  0  0  0
M  END
> <ConfClashScore>
0.0717744 

> <ConfOneFourInteractionScore>
-0.980879 

> <ConfScore>
7.86895 

> <ConfScorePBest>
0.00551946 

> <ConfTolerance>
1.29622 

$$$$
L16.****
  PyMOL2.4          3D                             0

 45 46  0  0  0  0  0  0  0  0999 V2000
    0.5523    0.3300    0.1801 C   0  0  0  1  0  0  0  0  0  0  0  0
   -0.2912    0.2739    0.8360 H   0  0  0  1  0  0  0  0  0  0  0  0
    0.0171    1.0478   -0.9258 O   0  0  0  1  0  0  0  0  0  0  0  0
    1.1273    0.8335    0.4903 C   0  0  0  1  0  0  0  0  0  0  0  0
    0.8057    1.2780    1.4089 H   0  0  0  1  0  0  0  0  0  0  0  0
    1.1253    1.9485   -0.4025 O   0  0  0  1  0  0  0  0  0  0  0  0
    1.3598    2.7452    0.0792 H   0  0  0  1  0  0  0  0  0  0  0  0
    1.9124    0.5841    0.5334 C   0  0  0  1  0  0  0  0  0  0  0  0
    2.2504    0.6946    1.5426 H   0  0  0  1  0  0  0  0  0  0  0  0
    2.7770    1.4993   -0.1351 O   0  0  0  1  0  0  0  0  0  0  0  0
    3.5170    1.7168    0.4365 H   0  0  0  1  0  0  0  0  0  0  0  0
    2.1222   -0.1678    0.2666 C   0  0  0  1  0  0  0  0  0  0  0  0
    2.7531   -0.6734    0.9675 H   0  0  0  1  0  0  0  0  0  0  0  0
    3.0038    0.0434   -0.8392 O   0  0  0  1  0  0  0  0  0  0  0  0
    3.1855   -0.7956   -1.2690 H   0  0  0  1  0  0  0  0  0  0  0  0
    1.5472   -0.6713   -0.0436 C   0  0  0  1  0  0  0  0  0  0  0  0
    1.8649   -1.0547   -0.9907 H   0  0  0  1  0  0  0  0  0  0  0  0
    0.7622   -0.4220   -0.0867 O   0  0  0  1  0  0  0  0  0  0  0  0
    1.4708   -1.9353    0.7635 C   0  0  0  1  0  0  0  0  0  0  0  0
    1.0247   -1.7441    1.7171 H   0  0  0  1  0  0  0  0  0  0  0  0
    2.4472   -2.3502    0.9027 H   0  0  0  1  0  0  0  0  0  0  0  0
    0.6489   -2.8303   -0.0061 O   0  0  0  1  0  0  0  0  0  0  0  0
   -0.0399   -2.3305   -0.4505 H   0  0  0  1  0  0  0  0  0  0  0  0
   -0.9556    0.3477   -1.6302 C   0  0  0  1  0  0  0  0  0  0  0  0
   -0.9289   -0.6195   -1.1733 H   0  0  0  1  0  0  0  0  0  0  0  0
   -1.6580    0.7473   -1.4641 C   0  0  0  1  0  0  0  0  0  0  0  0
   -1.5440    1.3847   -0.6122 H   0  0  0  1  0  0  0  0  0  0  0  0
   -2.4745   -0.2945   -0.9463 O   0  0  0  1  0  0  0  0  0  0  0  0
   -2.9485    0.0234   -0.1744 H   0  0  0  1  0  0  0  0  0  0  0  0
   -2.0671    1.1320   -2.0682 C   0  0  0  1  0  0  0  0  0  0  0  0
   -2.3318    2.1275   -1.7785 H   0  0  0  1  0  0  0  0  0  0  0  0
   -3.3385    0.4814   -2.0857 O   0  0  0  1  0  0  0  0  0  0  0  0
   -3.9929    1.0452   -1.6668 H   0  0  0  1  0  0  0  0  0  0  0  0
   -1.7730    1.1167   -2.8386 C   0  0  0  1  0  0  0  0  0  0  0  0
   -2.5392    0.8563   -3.5386 H   0  0  0  1  0  0  0  0  0  0  0  0
   -1.5508    2.4957   -3.1407 O   0  0  0  1  0  0  0  0  0  0  0  0
   -2.3940    2.9334   -3.2786 H   0  0  0  1  0  0  0  0  0  0  0  0
   -1.0706    0.7171   -3.0048 C   0  0  0  1  0  0  0  0  0  0  0  0
   -1.2578    0.0138   -3.7891 H   0  0  0  1  0  0  0  0  0  0  0  0
   -0.6615    0.3324   -2.4006 O   0  0  0  1  0  0  0  0  0  0  0  0
   -0.0542    1.5861   -3.6698 C   0  0  0  1  0  0  0  0  0  0  0  0
    0.1706    2.4189   -3.0367 H   0  0  0  1  0  0  0  0  0  0  0  0
   -0.4439    1.9404   -4.6012 H   0  0  0  1  0  0  0  0  0  0  0  0
    1.1320    0.8395   -3.9073 O   0  0  0  1  0  0  0  0  0  0  0  0
    1.8272    1.4295   -4.2078 H   0  0  0  1  0  0  0  0  0  0  0  0
  1  2  1  0  0  0  0
  1  3  1  0  0  0  0
  1  4  1  0  0  0  0
  1 18  1  0  0  0  0
  3 24  1  0  0  0  0
  4  5  1  0  0  0  0
  4  6  1  0  0  0  0
  4  8  1  0  0  0  0
  6  7  1  0  0  0  0
  8  9  1  0  0  0  0
  8 10  1  0  0  0  0
  8 12  1  0  0  0  0
 10 11  1  0  0  0  0
 12 13  1  0  0  0  0
 12 14  1  0  0  0  0
 12 16  1  0  0  0  0
 14 15  1  0  0  0  0
 16 17  1  0  0  0  0
 16 18  1  0  0  0  0
 16 19  1  0  0  0  0
 19 20  1  0  0  0  0
 19 21  1  0  0  0  0
 19 22  1  0  0  0  0
 22 23  1  0  0  0  0
 24 25  1  0  0  0  0
 24 26  1  0  0  0  0
 24 40  1  0  0  0  0
 26 27  1  0  0  0  0
 26 28  1  0  0  0  0
 26 30  1  0  0  0  0
 28 29  1  0  0  0  0
 30 31  1  0  0  0  0
 30 32  1  0  0  0  0
 30 34  1  0  0  0  0
 32 33  1  0  0  0  0
 34 35  1  0  0  0  0
 34 36  1  0  0  0  0
 34 38  1  0  0  0  0
 36 37  1  0  0  0  0
 38 39  1  0  0  0  0
 38 40  1  0  0  0  0
 38 41  1  0  0  0  0
 41 42  1  0  0  0  0
 41 43  1  0  0  0  0
 41 44  1  0  0  0  0
 44 45  1  0  0  0  0
M  END
> <ConfClashScore>
0.0719142 

> <ConfOneFourInteractionScore>
-0.96156 

> <ConfScore>
7.90786 

> <ConfScorePBest>
0.00541646 

> <ConfTolerance>
1.03576 

$$$$
L16.****
  PyMOL2.4          3D                             0

 45 46  0  0  0  0  0  0  0  0999 V2000
    0.6346    0.4927   -0.0935 C   0  0  0  1  0  0  0  0  0  0  0  0
   -0.3159    0.6212    0.3809 H   0  0  0  1  0  0  0  0  0  0  0  0
    0.4335    1.0823   -1.3298 O   0  0  0  1  0  0  0  0  0  0  0  0
    1.2127    0.9707    0.2493 C   0  0  0  1  0  0  0  0  0  0  0  0
    1.3320    1.8716   -0.3156 H   0  0  0  1  0  0  0  0  0  0  0  0
    0.6776    1.4719    1.4770 O   0  0  0  1  0  0  0  0  0  0  0  0
    0.2198    2.2995    1.3128 H   0  0  0  1  0  0  0  0  0  0  0  0
    1.9498    0.6527    0.4393 C   0  0  0  1  0  0  0  0  0  0  0  0
    2.2343    0.9150    1.4368 H   0  0  0  1  0  0  0  0  0  0  0  0
    2.8637    1.4254   -0.3411 O   0  0  0  1  0  0  0  0  0  0  0  0
    3.7623    1.1441   -0.1539 H   0  0  0  1  0  0  0  0  0  0  0  0
    2.1084   -0.1423    0.2865 C   0  0  0  1  0  0  0  0  0  0  0  0
    2.5402   -0.6178    1.1423 H   0  0  0  1  0  0  0  0  0  0  0  0
    3.2145   -0.0999   -0.6169 O   0  0  0  1  0  0  0  0  0  0  0  0
    3.5913   -0.9786   -0.7036 H   0  0  0  1  0  0  0  0  0  0  0  0
    1.5302   -0.6204   -0.0564 C   0  0  0  1  0  0  0  0  0  0  0  0
    1.9342   -1.1478   -0.8951 H   0  0  0  1  0  0  0  0  0  0  0  0
    0.7932   -0.3024   -0.2463 O   0  0  0  1  0  0  0  0  0  0  0  0
    1.1466   -1.7629    0.8393 C   0  0  0  1  0  0  0  0  0  0  0  0
    0.6134   -1.3866    1.6872 H   0  0  0  1  0  0  0  0  0  0  0  0
    2.0302   -2.2687    1.1688 H   0  0  0  1  0  0  0  0  0  0  0  0
    0.3199   -2.6722    0.1272 O   0  0  0  1  0  0  0  0  0  0  0  0
   -0.4974   -2.8092    0.6118 H   0  0  0  1  0  0  0  0  0  0  0  0
   -0.8335    1.0543   -1.9530 C   0  0  0  1  0  0  0  0  0  0  0  0
   -0.5758    1.1998   -2.9812 H   0  0  0  1  0  0  0  0  0  0  0  0
   -1.2216    1.7183   -1.6546 C   0  0  0  1  0  0  0  0  0  0  0  0
   -0.5359    2.2698   -1.0460 H   0  0  0  1  0  0  0  0  0  0  0  0
   -1.4356    2.6367   -2.7084 O   0  0  0  1  0  0  0  0  0  0  0  0
   -2.1512    2.3232   -3.2663 H   0  0  0  1  0  0  0  0  0  0  0  0
   -1.9298    1.6315   -1.2408 C   0  0  0  1  0  0  0  0  0  0  0  0
   -2.6699    2.3295   -1.5727 H   0  0  0  1  0  0  0  0  0  0  0  0
   -1.5836    2.1436    0.0468 O   0  0  0  1  0  0  0  0  0  0  0  0
   -2.2842    2.7194    0.3617 H   0  0  0  1  0  0  0  0  0  0  0  0
   -2.2495    0.8799   -1.1257 C   0  0  0  1  0  0  0  0  0  0  0  0
   -3.2944    0.8590   -1.3550 H   0  0  0  1  0  0  0  0  0  0  0  0
   -2.2486    0.7208    0.2944 O   0  0  0  1  0  0  0  0  0  0  0  0
   -2.8597    0.0219    0.5390 H   0  0  0  1  0  0  0  0  0  0  0  0
   -1.8613    0.2159   -1.4240 C   0  0  0  1  0  0  0  0  0  0  0  0
   -1.7514   -0.5219   -0.6568 H   0  0  0  1  0  0  0  0  0  0  0  0
   -1.1531    0.3026   -1.8379 O   0  0  0  1  0  0  0  0  0  0  0  0
   -2.7470   -0.5129   -2.3937 C   0  0  0  1  0  0  0  0  0  0  0  0
   -3.3800   -1.1796   -1.8462 H   0  0  0  1  0  0  0  0  0  0  0  0
   -2.1318   -1.0750   -3.0649 H   0  0  0  1  0  0  0  0  0  0  0  0
   -3.5624    0.3697   -3.1531 O   0  0  0  1  0  0  0  0  0  0  0  0
   -3.9306   -0.1008   -3.9045 H   0  0  0  1  0  0  0  0  0  0  0  0
  1  2  1  0  0  0  0
  1  3  1  0  0  0  0
  1  4  1  0  0  0  0
  1 18  1  0  0  0  0
  3 24  1  0  0  0  0
  4  5  1  0  0  0  0
  4  6  1  0  0  0  0
  4  8  1  0  0  0  0
  6  7  1  0  0  0  0
  8  9  1  0  0  0  0
  8 10  1  0  0  0  0
  8 12  1  0  0  0  0
 10 11  1  0  0  0  0
 12 13  1  0  0  0  0
 12 14  1  0  0  0  0
 12 16  1  0  0  0  0
 14 15  1  0  0  0  0
 16 17  1  0  0  0  0
 16 18  1  0  0  0  0
 16 19  1  0  0  0  0
 19 20  1  0  0  0  0
 19 21  1  0  0  0  0
 19 22  1  0  0  0  0
 22 23  1  0  0  0  0
 24 25  1  0  0  0  0
 24 26  1  0  0  0  0
 24 40  1  0  0  0  0
 26 27  1  0  0  0  0
 26 28  1  0  0  0  0
 26 30  1  0  0  0  0
 28 29  1  0  0  0  0
 30 31  1  0  0  0  0
 30 32  1  0  0  0  0
 30 34  1  0  0  0  0
 32 33  1  0  0  0  0
 34 35  1  0  0  0  0
 34 36  1  0  0  0  0
 34 38  1  0  0  0  0
 36 37  1  0  0  0  0
 38 39  1  0  0  0  0
 38 40  1  0  0  0  0
 38 41  1  0  0  0  0
 41 42  1  0  0  0  0
 41 43  1  0  0  0  0
 41 44  1  0  0  0  0
 44 45  1  0  0  0  0
M  END
> <ConfClashScore>
0.0716189 

> <ConfOneFourInteractionScore>
-0.969954 

> <ConfScore>
8.13787 

> <ConfScorePBest>
0.00531345 

> <ConfTolerance>
1.09495 

$$$$
L16.****
  PyMOL2.4          3D                             0

 45 46  0  0  0  0  0  0  0  0999 V2000
    0.7098    0.6682   -0.1573 C   0  0  0  1  0  0  0  0  0  0  0  0
   -0.2311    0.9053    0.2936 H   0  0  0  1  0  0  0  0  0  0  0  0
    0.6228    1.3288   -1.4146 O   0  0  0  1  0  0  0  0  0  0  0  0
    1.3330    1.0589    0.2160 C   0  0  0  1  0  0  0  0  0  0  0  0
    1.5606    1.9884   -0.2627 H   0  0  0  1  0  0  0  0  0  0  0  0
    0.8586    1.4827    1.4949 O   0  0  0  1  0  0  0  0  0  0  0  0
    0.2869    0.8061    1.8650 H   0  0  0  1  0  0  0  0  0  0  0  0
    2.0169    0.6440    0.4171 C   0  0  0  1  0  0  0  0  0  0  0  0
    2.3221    0.8542    1.4209 H   0  0  0  1  0  0  0  0  0  0  0  0
    3.0423    1.2804   -0.3500 O   0  0  0  1  0  0  0  0  0  0  0  0
    3.0967    2.2072   -0.1056 H   0  0  0  1  0  0  0  0  0  0  0  0
    2.0776   -0.1606    0.2450 C   0  0  0  1  0  0  0  0  0  0  0  0
    2.3679   -0.6981    1.1235 H   0  0  0  1  0  0  0  0  0  0  0  0
    3.2271   -0.3400   -0.5848 O   0  0  0  1  0  0  0  0  0  0  0  0
    3.4666   -1.2694   -0.6040 H   0  0  0  1  0  0  0  0  0  0  0  0
    1.4544   -0.5513   -0.1283 C   0  0  0  1  0  0  0  0  0  0  0  0
    1.8315   -1.0319   -1.0067 H   0  0  0  1  0  0  0  0  0  0  0  0
    0.7705   -0.1364   -0.3294 O   0  0  0  1  0  0  0  0  0  0  0  0
    1.0488   -1.7615    0.6794 C   0  0  0  1  0  0  0  0  0  0  0  0
    0.5372   -1.4313    1.5592 H   0  0  0  1  0  0  0  0  0  0  0  0
    1.9308   -2.2986    0.9595 H   0  0  0  1  0  0  0  0  0  0  0  0
    0.1993   -2.6294   -0.0397 O   0  0  0  1  0  0  0  0  0  0  0  0
    0.6969   -3.0571   -0.7404 H   0  0  0  1  0  0  0  0  0  0  0  0
   -0.6809    1.5209   -1.8574 C   0  0  0  1  0  0  0  0  0  0  0  0
   -1.1704    1.9124   -0.9903 H   0  0  0  1  0  0  0  0  0  0  0  0
   -0.6144    2.0860   -2.4548 C   0  0  0  1  0  0  0  0  0  0  0  0
    0.3146    2.6137   -2.3971 H   0  0  0  1  0  0  0  0  0  0  0  0
   -1.5497    3.0694   -2.0326 O   0  0  0  1  0  0  0  0  0  0  0  0
   -1.1720    3.5838   -1.3153 H   0  0  0  1  0  0  0  0  0  0  0  0
   -0.8043    1.8887   -3.2329 C   0  0  0  1  0  0  0  0  0  0  0  0
   -0.0366    2.2052   -3.9077 H   0  0  0  1  0  0  0  0  0  0  0  0
   -1.8547    2.8113   -3.5255 O   0  0  0  1  0  0  0  0  0  0  0  0
   -2.6979    2.3528   -3.5083 H   0  0  0  1  0  0  0  0  0  0  0  0
   -1.0606    1.1256   -3.4129 C   0  0  0  1  0  0  0  0  0  0  0  0
   -1.9258    1.1381   -4.0423 H   0  0  0  1  0  0  0  0  0  0  0  0
   -0.0482    0.6401   -4.2968 O   0  0  0  1  0  0  0  0  0  0  0  0
   -0.4448    0.4011   -5.1378 H   0  0  0  1  0  0  0  0  0  0  0  0
   -1.1270    0.5605   -2.8155 C   0  0  0  1  0  0  0  0  0  0  0  0
   -2.1282    0.1831   -2.8266 H   0  0  0  1  0  0  0  0  0  0  0  0
   -0.9372    0.7578   -2.0374 O   0  0  0  1  0  0  0  0  0  0  0  0
   -0.3704   -0.7157   -3.0614 C   0  0  0  1  0  0  0  0  0  0  0  0
   -0.5800   -1.0532   -4.0549 H   0  0  0  1  0  0  0  0  0  0  0  0
   -0.6997   -1.4512   -2.3574 H   0  0  0  1  0  0  0  0  0  0  0  0
    1.0346   -0.5491   -2.9233 O   0  0  0  1  0  0  0  0  0  0  0  0
    1.2554    0.3824   -2.9959 H   0  0  0  1  0  0  0  0  0  0  0  0
  1  2  1  0  0  0  0
  1  3  1  0  0  0  0
  1  4  1  0  0  0  0
  1 18  1  0  0  0  0
  3 24  1  0  0  0  0
  4  5  1  0  0  0  0
  4  6  1  0  0  0  0
  4  8  1  0  0  0  0
  6  7  1  0  0  0  0
  8  9  1  0  0  0  0
  8 10  1  0  0  0  0
  8 12  1  0  0  0  0
 10 11  1  0  0  0  0
 12 13  1  0  0  0  0
 12 14  1  0  0  0  0
 12 16  1  0  0  0  0
 14 15  1  0  0  0  0
 16 17  1  0  0  0  0
 16 18  1  0  0  0  0
 16 19  1  0  0  0  0
 19 20  1  0  0  0  0
 19 21  1  0  0  0  0
 19 22  1  0  0  0  0
 22 23  1  0  0  0  0
 24 25  1  0  0  0  0
 24 26  1  0  0  0  0
 24 40  1  0  0  0  0
 26 27  1  0  0  0  0
 26 28  1  0  0  0  0
 26 30  1  0  0  0  0
 28 29  1  0  0  0  0
 30 31  1  0  0  0  0
 30 32  1  0  0  0  0
 30 34  1  0  0  0  0
 32 33  1  0  0  0  0
 34 35  1  0  0  0  0
 34 36  1  0  0  0  0
 34 38  1  0  0  0  0
 36 37  1  0  0  0  0
 38 39  1  0  0  0  0
 38 40  1  0  0  0  0
 38 41  1  0  0  0  0
 41 42  1  0  0  0  0
 41 43  1  0  0  0  0
 41 44  1  0  0  0  0
 44 45  1  0  0  0  0
M  END
> <ConfClashScore>
0.0745676 

> <ConfOneFourInteractionScore>
-0.976354 

> <ConfScore>
8.16071 

> <ConfScorePBest>
0.00521045 

> <ConfTolerance>
1.15196 

$$$$
L16.****
  PyMOL2.4          3D                             0

 45 46  0  0  0  0  0  0  0  0999 V2000
    0.7061    0.5901   -0.3944 C   0  0  0  1  0  0  0  0  0  0  0  0
    0.4770    1.0343   -1.3405 H   0  0  0  1  0  0  0  0  0  0  0  0
   -0.5128    0.7681    0.3179 O   0  0  0  1  0  0  0  0  0  0  0  0
    1.2478    1.0538    0.0202 C   0  0  0  1  0  0  0  0  0  0  0  0
    1.5019    1.9356   -0.5300 H   0  0  0  1  0  0  0  0  0  0  0  0
    0.4781    1.5874    1.0987 O   0  0  0  1  0  0  0  0  0  0  0  0
    0.8216    1.2568    1.9319 H   0  0  0  1  0  0  0  0  0  0  0  0
    1.9186    0.7059    0.3510 C   0  0  0  1  0  0  0  0  0  0  0  0
    2.0450    1.0104    1.3690 H   0  0  0  1  0  0  0  0  0  0  0  0
    2.9996    1.3752   -0.2935 O   0  0  0  1  0  0  0  0  0  0  0  0
    3.7138    1.5084    0.3340 H   0  0  0  1  0  0  0  0  0  0  0  0
    2.0474   -0.1046    0.2674 C   0  0  0  1  0  0  0  0  0  0  0  0
    2.3259   -0.5579    1.1957 H   0  0  0  1  0  0  0  0  0  0  0  0
    3.2447   -0.2309   -0.5042 O   0  0  0  1  0  0  0  0  0  0  0  0
    3.6242   -1.1019   -0.3666 H   0  0  0  1  0  0  0  0  0  0  0  0
    1.5057   -0.5683   -0.1472 C   0  0  0  1  0  0  0  0  0  0  0  0
    1.9924   -1.2259   -0.8369 H   0  0  0  1  0  0  0  0  0  0  0  0
    0.8349   -0.2204   -0.4780 O   0  0  0  1  0  0  0  0  0  0  0  0
    0.8908   -1.5411    0.8174 C   0  0  0  1  0  0  0  0  0  0  0  0
    1.6610   -2.1364    1.2616 H   0  0  0  1  0  0  0  0  0  0  0  0
    0.2058   -2.1754    0.2947 H   0  0  0  1  0  0  0  0  0  0  0  0
    0.1959   -0.8320    1.8347 O   0  0  0  1  0  0  0  0  0  0  0  0
   -0.6656   -1.2323    1.9730 H   0  0  0  1  0  0  0  0  0  0  0  0
   -1.6481    0.6435   -0.4748 C   0  0  0  1  0  0  0  0  0  0  0  0
   -1.4399   -0.2341   -1.0504 H   0  0  0  1  0  0  0  0  0  0  0  0
   -2.2620    0.5208    0.0624 C   0  0  0  1  0  0  0  0  0  0  0  0
   -1.8939    0.2080    1.0172 H   0  0  0  1  0  0  0  0  0  0  0  0
   -2.9488   -0.6373   -0.3929 O   0  0  0  1  0  0  0  0  0  0  0  0
   -2.5361   -1.4209   -0.0226 H   0  0  0  1  0  0  0  0  0  0  0  0
   -2.8636    1.0802    0.1370 C   0  0  0  1  0  0  0  0  0  0  0  0
   -3.8334    0.6288    0.1629 H   0  0  0  1  0  0  0  0  0  0  0  0
   -2.7228    1.5912    1.4633 O   0  0  0  1  0  0  0  0  0  0  0  0
   -3.2688    1.0786    2.0639 H   0  0  0  1  0  0  0  0  0  0  0  0
   -2.8504    1.7625   -0.3264 C   0  0  0  1  0  0  0  0  0  0  0  0
   -2.9472    2.6215    0.3042 H   0  0  0  1  0  0  0  0  0  0  0  0
   -4.0881    1.8057   -1.0393 O   0  0  0  1  0  0  0  0  0  0  0  0
   -4.4651    2.6862   -0.9738 H   0  0  0  1  0  0  0  0  0  0  0  0
   -2.2365    1.8852   -0.8636 C   0  0  0  1  0  0  0  0  0  0  0  0
   -1.7896    2.8344   -0.6531 H   0  0  0  1  0  0  0  0  0  0  0  0
   -1.6349    1.3258   -0.9381 O   0  0  0  1  0  0  0  0  0  0  0  0
   -2.6867    2.1207   -2.2766 C   0  0  0  1  0  0  0  0  0  0  0  0
   -2.9123    3.1582   -2.4098 H   0  0  0  1  0  0  0  0  0  0  0  0
   -3.5615    1.5368   -2.4731 H   0  0  0  1  0  0  0  0  0  0  0  0
   -1.6520    1.7417   -3.1792 O   0  0  0  1  0  0  0  0  0  0  0  0
   -0.8029    2.0203   -2.8285 H   0  0  0  1  0  0  0  0  0  0  0  0
  1  2  1  0  0  0  0
  1  3  1  0  0  0  0
  1  4  1  0  0  0  0
  1 18  1  0  0  0  0
  3 24  1  0  0  0  0
  4  5  1  0  0  0  0
  4  6  1  0  0  0  0
  4  8  1  0  0  0  0
  6  7  1  0  0  0  0
  8  9  1  0  0  0  0
  8 10  1  0  0  0  0
  8 12  1  0  0  0  0
 10 11  1  0  0  0  0
 12 13  1  0  0  0  0
 12 14  1  0  0  0  0
 12 16  1  0  0  0  0
 14 15  1  0  0  0  0
 16 17  1  0  0  0  0
 16 18  1  0  0  0  0
 16 19  1  0  0  0  0
 19 20  1  0  0  0  0
 19 21  1  0  0  0  0
 19 22  1  0  0  0  0
 22 23  1  0  0  0  0
 24 25  1  0  0  0  0
 24 26  1  0  0  0  0
 24 40  1  0  0  0  0
 26 27  1  0  0  0  0
 26 28  1  0  0  0  0
 26 30  1  0  0  0  0
 28 29  1  0  0  0  0
 30 31  1  0  0  0  0
 30 32  1  0  0  0  0
 30 34  1  0  0  0  0
 32 33  1  0  0  0  0
 34 35  1  0  0  0  0
 34 36  1  0  0  0  0
 34 38  1  0  0  0  0
 36 37  1  0  0  0  0
 38 39  1  0  0  0  0
 38 40  1  0  0  0  0
 38 41  1  0  0  0  0
 41 42  1  0  0  0  0
 41 43  1  0  0  0  0
 41 44  1  0  0  0  0
 44 45  1  0  0  0  0
M  END
> <ConfClashScore>
0.0739058 

> <ConfOneFourInteractionScore>
-0.977217 

> <ConfScore>
8.18718 

> <ConfScorePBest>
0.00510745 

> <ConfTolerance>
1.27152 

$$$$
L16.****
  PyMOL2.4          3D                             0

 45 46  0  0  0  0  0  0  0  0999 V2000
    0.5634    0.3680    0.1967 C   0  0  0  1  0  0  0  0  0  0  0  0
   -0.2747    0.4286    0.8591 H   0  0  0  1  0  0  0  0  0  0  0  0
    0.1398    1.1574   -0.9088 O   0  0  0  1  0  0  0  0  0  0  0  0
    1.2047    0.8058    0.4750 C   0  0  0  1  0  0  0  0  0  0  0  0
    0.9819    1.2197    1.4362 H   0  0  0  1  0  0  0  0  0  0  0  0
    1.2547    1.9813   -0.3378 O   0  0  0  1  0  0  0  0  0  0  0  0
    1.1322    2.7575    0.2136 H   0  0  0  1  0  0  0  0  0  0  0  0
    1.9601    0.4746    0.4744 C   0  0  0  1  0  0  0  0  0  0  0  0
    2.4162    0.5914    1.4353 H   0  0  0  1  0  0  0  0  0  0  0  0
    2.7626    1.3410   -0.3297 O   0  0  0  1  0  0  0  0  0  0  0  0
    3.1774    2.0030    0.2283 H   0  0  0  1  0  0  0  0  0  0  0  0
    2.0741   -0.2936    0.1960 C   0  0  0  1  0  0  0  0  0  0  0  0
    2.6792   -0.8676    0.8662 H   0  0  0  1  0  0  0  0  0  0  0  0
    2.9419   -0.1261   -0.9266 O   0  0  0  1  0  0  0  0  0  0  0  0
    3.8464   -0.3099   -0.6626 H   0  0  0  1  0  0  0  0  0  0  0  0
    1.4328   -0.7314   -0.0823 C   0  0  0  1  0  0  0  0  0  0  0  0
    1.6550   -1.1841   -1.0260 H   0  0  0  1  0  0  0  0  0  0  0  0
    0.6774   -0.4002   -0.0818 O   0  0  0  1  0  0  0  0  0  0  0  0
    1.2379   -1.9404    0.7868 C   0  0  0  1  0  0  0  0  0  0  0  0
    2.1905   -2.3690    1.0186 H   0  0  0  1  0  0  0  0  0  0  0  0
    0.6398   -2.6594    0.2669 H   0  0  0  1  0  0  0  0  0  0  0  0
    0.5835   -1.5637    1.9911 O   0  0  0  1  0  0  0  0  0  0  0  0
   -0.3445   -1.8042    1.9404 H   0  0  0  1  0  0  0  0  0  0  0  0
   -1.1968    0.9642   -1.2581 C   0  0  0  1  0  0  0  0  0  0  0  0
   -1.5001    1.9425   -1.5676 H   0  0  0  1  0  0  0  0  0  0  0  0
   -1.1574    0.4429   -1.8963 C   0  0  0  1  0  0  0  0  0  0  0  0
   -0.1816    0.4135   -2.3343 H   0  0  0  1  0  0  0  0  0  0  0  0
   -1.9114    1.1615   -2.8633 O   0  0  0  1  0  0  0  0  0  0  0  0
   -2.8214    1.2387   -2.5674 H   0  0  0  1  0  0  0  0  0  0  0  0
   -1.4955   -0.3073   -1.8383 C   0  0  0  1  0  0  0  0  0  0  0  0
   -2.0791   -0.5471   -2.7025 H   0  0  0  1  0  0  0  0  0  0  0  0
   -0.3501   -1.1451   -2.0009 O   0  0  0  1  0  0  0  0  0  0  0  0
   -0.2780   -1.4147   -2.9194 H   0  0  0  1  0  0  0  0  0  0  0  0
   -1.8730   -0.5355   -1.1414 C   0  0  0  1  0  0  0  0  0  0  0  0
   -2.8648   -0.8583   -1.3803 H   0  0  0  1  0  0  0  0  0  0  0  0
   -1.3039   -1.7476   -0.6869 O   0  0  0  1  0  0  0  0  0  0  0  0
   -1.9561   -2.2381   -0.1814 H   0  0  0  1  0  0  0  0  0  0  0  0
   -1.9125   -0.0141   -0.5032 C   0  0  0  1  0  0  0  0  0  0  0  0
   -1.5993   -0.4989    0.3978 H   0  0  0  1  0  0  0  0  0  0  0  0
   -1.5744    0.7360   -0.5612 O   0  0  0  1  0  0  0  0  0  0  0  0
   -3.3557    0.2932   -0.1803 C   0  0  0  1  0  0  0  0  0  0  0  0
   -3.6812   -0.3329    0.6240 H   0  0  0  1  0  0  0  0  0  0  0  0
   -3.9603    0.1089   -1.0436 H   0  0  0  1  0  0  0  0  0  0  0  0
   -3.4808    1.6566    0.2019 O   0  0  0  1  0  0  0  0  0  0  0  0
   -2.8340    1.8595    0.8817 H   0  0  0  1  0  0  0  0  0  0  0  0
  1  2  1  0  0  0  0
  1  3  1  0  0  0  0
  1  4  1  0  0  0  0
  1 18  1  0  0  0  0
  3 24  1  0  0  0  0
  4  5  1  0  0  0  0
  4  6  1  0  0  0  0
  4  8  1  0  0  0  0
  6  7  1  0  0  0  0
  8  9  1  0  0  0  0
  8 10  1  0  0  0  0
  8 12  1  0  0  0  0
 10 11  1  0  0  0  0
 12 13  1  0  0  0  0
 12 14  1  0  0  0  0
 12 16  1  0  0  0  0
 14 15  1  0  0  0  0
 16 17  1  0  0  0  0
 16 18  1  0  0  0  0
 16 19  1  0  0  0  0
 19 20  1  0  0  0  0
 19 21  1  0  0  0  0
 19 22  1  0  0  0  0
 22 23  1  0  0  0  0
 24 25  1  0  0  0  0
 24 26  1  0  0  0  0
 24 40  1  0  0  0  0
 26 27  1  0  0  0  0
 26 28  1  0  0  0  0
 26 30  1  0  0  0  0
 28 29  1  0  0  0  0
 30 31  1  0  0  0  0
 30 32  1  0  0  0  0
 30 34  1  0  0  0  0
 32 33  1  0  0  0  0
 34 35  1  0  0  0  0
 34 36  1  0  0  0  0
 34 38  1  0  0  0  0
 36 37  1  0  0  0  0
 38 39  1  0  0  0  0
 38 40  1  0  0  0  0
 38 41  1  0  0  0  0
 41 42  1  0  0  0  0
 41 43  1  0  0  0  0
 41 44  1  0  0  0  0
 44 45  1  0  0  0  0
M  END
> <ConfClashScore>
0.0727689 

> <ConfOneFourInteractionScore>
-0.983198 

> <ConfScore>
8.30905 

> <ConfScorePBest>
0.00500445 

> <ConfTolerance>
1.30645 

$$$$
L16.****
  PyMOL2.4          3D                             0

 45 46  0  0  0  0  0  0  0  0999 V2000
    0.6703    0.4008    0.2595 C   0  0  0  1  0  0  0  0  0  0  0  0
    0.0655    0.5028    1.1362 H   0  0  0  1  0  0  0  0  0  0  0  0
   -0.1194    1.0284   -0.7237 O   0  0  0  1  0  0  0  0  0  0  0  0
    1.3210    0.9070    0.2841 C   0  0  0  1  0  0  0  0  0  0  0  0
    1.1220    1.8316   -0.2164 H   0  0  0  1  0  0  0  0  0  0  0  0
    1.4799    1.3230    1.6413 O   0  0  0  1  0  0  0  0  0  0  0  0
    1.9507    2.1593    1.6671 H   0  0  0  1  0  0  0  0  0  0  0  0
    2.0730    0.6192    0.1051 C   0  0  0  1  0  0  0  0  0  0  0  0
    2.7720    0.9024    0.8641 H   0  0  0  1  0  0  0  0  0  0  0  0
    2.5608    1.3485   -1.0225 O   0  0  0  1  0  0  0  0  0  0  0  0
    1.8418    1.8476   -1.4168 H   0  0  0  1  0  0  0  0  0  0  0  0
    2.1741   -0.1740   -0.0982 C   0  0  0  1  0  0  0  0  0  0  0  0
    2.7367   -0.2529   -1.0049 H   0  0  0  1  0  0  0  0  0  0  0  0
    3.1132   -0.6617    0.8619 O   0  0  0  1  0  0  0  0  0  0  0  0
    2.6970   -0.7004    1.7261 H   0  0  0  1  0  0  0  0  0  0  0  0
    1.5234   -0.6802   -0.1227 C   0  0  0  1  0  0  0  0  0  0  0  0
    1.7223   -1.6065    0.3746 H   0  0  0  1  0  0  0  0  0  0  0  0
    0.7714   -0.3924    0.0562 O   0  0  0  1  0  0  0  0  0  0  0  0
    1.3873   -1.1274   -1.5590 C   0  0  0  1  0  0  0  0  0  0  0  0
    0.5424   -1.7775   -1.6505 H   0  0  0  1  0  0  0  0  0  0  0  0
    2.2733   -1.6494   -1.8544 H   0  0  0  1  0  0  0  0  0  0  0  0
    1.2047    0.0047   -2.3971 O   0  0  0  1  0  0  0  0  0  0  0  0
    0.2676    0.1354   -2.5595 H   0  0  0  1  0  0  0  0  0  0  0  0
   -1.3755    0.4801   -1.0316 C   0  0  0  1  0  0  0  0  0  0  0  0
   -1.3144    0.3719   -2.0944 H   0  0  0  1  0  0  0  0  0  0  0  0
   -1.9114    1.0745   -0.8313 C   0  0  0  1  0  0  0  0  0  0  0  0
   -2.3336    1.5161   -1.7097 H   0  0  0  1  0  0  0  0  0  0  0  0
   -1.1333    2.1442   -0.3113 O   0  0  0  1  0  0  0  0  0  0  0  0
   -0.8633    2.7222   -1.0286 H   0  0  0  1  0  0  0  0  0  0  0  0
   -2.4954    0.9309   -0.2668 C   0  0  0  1  0  0  0  0  0  0  0  0
   -2.4944    1.7062    0.4706 H   0  0  0  1  0  0  0  0  0  0  0  0
   -3.7195    1.1957   -0.9564 O   0  0  0  1  0  0  0  0  0  0  0  0
   -3.7999    2.1390   -1.1156 H   0  0  0  1  0  0  0  0  0  0  0  0
   -2.5428    0.1922    0.0972 C   0  0  0  1  0  0  0  0  0  0  0  0
   -3.5481   -0.1737    0.1179 H   0  0  0  1  0  0  0  0  0  0  0  0
   -2.2744    0.4222    1.4782 O   0  0  0  1  0  0  0  0  0  0  0  0
   -2.1476   -0.4183    1.9243 H   0  0  0  1  0  0  0  0  0  0  0  0
   -2.0068   -0.4021   -0.1030 C   0  0  0  1  0  0  0  0  0  0  0  0
   -1.5704   -0.8179    0.7810 H   0  0  0  1  0  0  0  0  0  0  0  0
   -1.4228   -0.2586   -0.6676 O   0  0  0  1  0  0  0  0  0  0  0  0
   -2.7388   -1.6043   -0.6508 C   0  0  0  1  0  0  0  0  0  0  0  0
   -3.3772   -2.0078    0.1072 H   0  0  0  1  0  0  0  0  0  0  0  0
   -2.0290   -2.3461   -0.9520 H   0  0  0  1  0  0  0  0  0  0  0  0
   -3.5226   -1.2176   -1.7719 O   0  0  0  1  0  0  0  0  0  0  0  0
   -4.1432   -0.5342   -1.5086 H   0  0  0  1  0  0  0  0  0  0  0  0
  1  2  1  0  0  0  0
  1  3  1  0  0  0  0
  1  4  1  0  0  0  0
  1 18  1  0  0  0  0
  3 24  1  0  0  0  0
  4  5  1  0  0  0  0
  4  6  1  0  0  0  0
  4  8  1  0  0  0  0
  6  7  1  0  0  0  0
  8  9  1  0  0  0  0
  8 10  1  0  0  0  0
  8 12  1  0  0  0  0
 10 11  1  0  0  0  0
 12 13  1  0  0  0  0
 12 14  1  0  0  0  0
 12 16  1  0  0  0  0
 14 15  1  0  0  0  0
 16 17  1  0  0  0  0
 16 18  1  0  0  0  0
 16 19  1  0  0  0  0
 19 20  1  0  0  0  0
 19 21  1  0  0  0  0
 19 22  1  0  0  0  0
 22 23  1  0  0  0  0
 24 25  1  0  0  0  0
 24 26  1  0  0  0  0
 24 40  1  0  0  0  0
 26 27  1  0  0  0  0
 26 28  1  0  0  0  0
 26 30  1  0  0  0  0
 28 29  1  0  0  0  0
 30 31  1  0  0  0  0
 30 32  1  0  0  0  0
 30 34  1  0  0  0  0
 32 33  1  0  0  0  0
 34 35  1  0  0  0  0
 34 36  1  0  0  0  0
 34 38  1  0  0  0  0
 36 37  1  0  0  0  0
 38 39  1  0  0  0  0
 38 40  1  0  0  0  0
 38 41  1  0  0  0  0
 41 42  1  0  0  0  0
 41 43  1  0  0  0  0
 41 44  1  0  0  0  0
 44 45  1  0  0  0  0
M  END
> <ConfClashScore>
0.0772291 

> <ConfOneFourInteractionScore>
-0.966502 

> <ConfScore>
8.47462 

> <ConfScorePBest>
0.00490145 

> <ConfTolerance>
1.79658 

$$$$
