# created with PyMOL 2.5.2
@<TRIPOS>MOLECULE
PPI
11 10 1                 
SMALL
USER_CHARGES
@<TRIPOS>ATOM
1	  C1	-0.027	0.000	-0.481	C.2	1	PPI0	0.000	
2	  C2	0.830	0.000	0.756	C.3	1	PPI0	0.000	
3	  C3	-0.064	0.000	1.997	C.3	1	PPI0	0.000	
4	  O1	-1.231	0.000	-0.382	O.co2	1	PPI0	0.000	
5	  O2	0.545	0.000	-1.695	O.3	1	PPI0	0.000	
6	 H21	1.460	0.890	0.762	 H	1	PPI0	0.000	
7	 H22	1.460	-0.890	0.762	 H	1	PPI0	0.000	
8	 H31	0.556	0.000	2.893	 H	1	PPI0	0.000	
9	 H32	-0.693	0.890	1.991	 H	1	PPI0	0.000	
10	 H33	-0.693	-0.890	1.991	 H	1	PPI0	0.000	
11	 HO2	-0.005	0.000	-2.490	 H	1	PPI0	0.000	
@<TRIPOS>BOND
1 1 2 1
2 1 4 2
3 1 5 1
4 2 3 1
5 2 6 1
6 2 7 1
7 3 8 1
8 3 9 1
9 3 10 1
10 5 11 1
@<TRIPOS>SUBSTRUCTURE
1	PPI0	1	GROUP	1 ****	PPI
