PPI.****
  PyMOL2.4          3D                             0

 10  9  0  0  0  0  0  0  0  0999 V2000
   -0.0270    0.0000   -0.4810 C   0  0  0  0  0  0  0  0  0  0  0  0
    0.8300    0.0000    0.7560 C   0  0  0  0  0  0  0  0  0  0  0  0
    1.4590    0.8900    0.7620 H   0  0  0  0  0  0  0  0  0  0  0  0
    1.4590   -0.8900    0.7620 H   0  0  0  0  0  0  0  0  0  0  0  0
   -0.0640    0.0000    1.9970 C   0  0  0  0  0  0  0  0  0  0  0  0
   -0.6930    0.8900    1.9910 H   0  0  0  0  0  0  0  0  0  0  0  0
    0.5570    0.0000    2.8920 H   0  0  0  0  0  0  0  0  0  0  0  0
   -0.6930   -0.8900    1.9920 H   0  0  0  0  0  0  0  0  0  0  0  0
   -1.2310    0.0000   -0.3820 O   0  5  0  0  0  0  0  0  0  0  0  0
    0.5450    0.0000   -1.6950 O   0  0  0  0  0  0  0  0  0  0  0  0
  1  2  1  0  0  0  0
  1  9  1  0  0  0  0
  1 10  2  0  0  0  0
  2  3  1  0  0  0  0
  2  4  1  0  0  0  0
  2  5  1  0  0  0  0
  5  6  1  0  0  0  0
  5  7  1  0  0  0  0
  5  8  1  0  0  0  0
M  END
$$$$
