# created with PyMOL 2.4.0
@<TRIPOS>MOLECULE
PPI.****
10 9 1                  
SMALL
USER_CHARGES
@<TRIPOS>ATOM
1	   C	-0.027	0.000	-0.481	C.2	1	UNK0	0.000	
2	   C	0.830	0.000	0.756	C.3	1	UNK0	0.000	
3	   H	1.459	0.890	0.762	 H	1	UNK0	0.000	
4	   H	1.459	-0.890	0.762	 H	1	UNK0	0.000	
5	   C	-0.064	0.000	1.997	C.3	1	UNK0	0.000	
6	   H	-0.693	0.890	1.991	 H	1	UNK0	0.000	
7	   H	0.557	0.000	2.892	 H	1	UNK0	0.000	
8	   H	-0.693	-0.890	1.992	 H	1	UNK0	0.000	
9	   O	-1.231	0.000	-0.382	O.co2	1	UNK0	0.000	
10	   O	0.545	0.000	-1.695	O.co2	1	UNK0	0.000	
@<TRIPOS>BOND
1 1 2 1
2 1 9 ar
3 1 10 ar
4 2 3 1
5 2 4 1
6 2 5 1
7 5 6 1
8 5 7 1
9 5 8 1
@<TRIPOS>SUBSTRUCTURE
1	UNK0	1	GROUP	1 ****	UNK
