# created with PyMOL 2.5.2
@<TRIPOS>MOLECULE
RIB
20 20 1                 
SMALL
USER_CHARGES
@<TRIPOS>ATOM
1	  O5	-0.774	-0.372	3.102	O.3	1	RIB0	0.000	
2	  C5	0.124	0.364	2.271	C.3	1	RIB0	0.000	
3	  C4	0.184	-0.281	0.885	C.3	1	RIB0	0.000	
4	  O4	-1.110	-0.245	0.276	O.3	1	RIB0	0.000	
5	  C3	1.151	0.511	-0.020	C.3	1	RIB0	0.000	
6	  O3	2.419	-0.141	-0.116	O.3	1	RIB0	0.000	
7	  C2	0.412	0.487	-1.387	C.3	1	RIB0	0.000	
8	  O2	0.687	-0.720	-2.100	O.3	1	RIB0	0.000	
9	  C1	-1.065	0.539	-0.925	C.3	1	RIB0	0.000	
10	  O1	-1.918	-0.028	-1.921	O.3	1	RIB0	0.000	
11	 HO5	-0.783	0.067	3.963	 H	1	RIB0	0.000	
12	 H51	-0.225	1.392	2.178	 H	1	RIB0	0.000	
13	 H52	1.119	0.359	2.718	 H	1	RIB0	0.000	
14	  H4	0.523	-1.313	0.973	 H	1	RIB0	0.000	
15	  H3	1.269	1.533	0.339	 H	1	RIB0	0.000	
16	 HO3	2.940	0.354	-0.763	 H	1	RIB0	0.000	
17	  H2	0.667	1.361	-1.987	 H	1	RIB0	0.000	
18	 HO2	0.116	-0.720	-2.880	 H	1	RIB0	0.000	
19	  H1	-1.360	1.568	-0.717	 H	1	RIB0	0.000	
20	 HO1	-2.816	-0.009	-1.563	 H	1	RIB0	0.000	
@<TRIPOS>BOND
1 1 2 1
2 1 11 1
3 2 3 1
4 2 12 1
5 2 13 1
6 3 4 1
7 3 5 1
8 3 14 1
9 4 9 1
10 5 6 1
11 5 7 1
12 5 15 1
13 6 16 1
14 7 8 1
15 7 9 1
16 7 17 1
17 8 18 1
18 9 10 1
19 9 19 1
20 10 20 1
@<TRIPOS>SUBSTRUCTURE
1	RIB0	1	GROUP	1 ****	RIB
