RIB.****
  PyMOL2.4          3D                             0

 20 20  0  0  0  0  0  0  0  0999 V2000
   -0.3480    1.5500    2.1587 O   0  0  0  1  0  0  0  0  0  0  0  0
   -1.2707    1.4652    2.4097 H   0  0  0  1  0  0  0  0  0  0  0  0
    0.2805    0.2733    2.2192 C   0  0  0  1  0  0  0  0  0  0  0  0
   -0.2501   -0.3634    2.8960 H   0  0  0  1  0  0  0  0  0  0  0  0
    1.2930    0.3798    2.5485 H   0  0  0  1  0  0  0  0  0  0  0  0
    0.2498   -0.3144    0.8265 C   0  0  0  1  0  0  0  0  0  0  0  0
    0.6009   -1.3246    0.8573 H   0  0  0  1  0  0  0  0  0  0  0  0
   -1.0883   -0.2696    0.2981 O   0  0  0  1  0  0  0  0  0  0  0  0
    1.0844    0.4840   -0.0781 C   0  0  0  1  0  0  0  0  0  0  0  0
    1.1696    1.4888    0.2797 H   0  0  0  1  0  0  0  0  0  0  0  0
    2.3860   -0.0919   -0.1967 O   0  0  0  1  0  0  0  0  0  0  0  0
    2.3441   -0.8644   -0.7652 H   0  0  0  1  0  0  0  0  0  0  0  0
    0.3646    0.4548   -1.4183 C   0  0  0  1  0  0  0  0  0  0  0  0
    0.5684    1.3342   -1.9929 H   0  0  0  1  0  0  0  0  0  0  0  0
    0.7164   -0.7028   -2.1774 O   0  0  0  1  0  0  0  0  0  0  0  0
    0.9529   -1.4172   -1.5813 H   0  0  0  1  0  0  0  0  0  0  0  0
   -1.0957    0.4064   -0.9645 C   0  0  0  1  0  0  0  0  0  0  0  0
   -1.4848    1.3971   -0.8545 H   0  0  0  1  0  0  0  0  0  0  0  0
   -1.8745   -0.3031   -1.8953 O   0  0  0  1  0  0  0  0  0  0  0  0
   -2.3083    0.3153   -2.4877 H   0  0  0  1  0  0  0  0  0  0  0  0
  1  2  1  0  0  0  0
  1  3  1  0  0  0  0
  3  4  1  0  0  0  0
  3  5  1  0  0  0  0
  3  6  1  0  0  0  0
  6  7  1  0  0  0  0
  6  8  1  0  0  0  0
  6  9  1  0  0  0  0
  8 17  1  0  0  0  0
  9 10  1  0  0  0  0
  9 11  1  0  0  0  0
  9 13  1  0  0  0  0
 11 12  1  0  0  0  0
 13 14  1  0  0  0  0
 13 15  1  0  0  0  0
 13 17  1  0  0  0  0
 15 16  1  0  0  0  0
 17 18  1  0  0  0  0
 17 19  1  0  0  0  0
 19 20  1  0  0  0  0
M  END
> <ConfClashScore>
0 

> <ConfOneFourInteractionScore>
-1 

> <ConfScore>
0.167139 

> <ConfScorePBest>
0.0313121 

> <ConfTolerance>
0.25 

$$$$
RIB.****
  PyMOL2.4          3D                             0

 20 20  0  0  0  0  0  0  0  0999 V2000
    0.2056    2.3193    1.3325 O   0  0  0  1  0  0  0  0  0  0  0  0
    1.0476    2.6365    0.9979 H   0  0  0  1  0  0  0  0  0  0  0  0
    0.4010    1.0693    2.0168 C   0  0  0  1  0  0  0  0  0  0  0  0
   -0.3150    0.9576    2.8040 H   0  0  0  1  0  0  0  0  0  0  0  0
    1.3896    1.0155    2.4229 H   0  0  0  1  0  0  0  0  0  0  0  0
    0.2019   -0.0003    0.9639 C   0  0  0  1  0  0  0  0  0  0  0  0
    0.3640   -0.9644    1.3990 H   0  0  0  1  0  0  0  0  0  0  0  0
   -1.1257    0.0817    0.4158 O   0  0  0  1  0  0  0  0  0  0  0  0
    1.1760    0.2242   -0.2190 C   0  0  0  1  0  0  0  0  0  0  0  0
    1.9943    0.8504    0.0693 H   0  0  0  1  0  0  0  0  0  0  0  0
    1.6775   -1.0177   -0.7151 O   0  0  0  1  0  0  0  0  0  0  0  0
    1.1188   -1.7350   -0.4070 H   0  0  0  1  0  0  0  0  0  0  0  0
    0.2990    0.9112   -1.2510 C   0  0  0  1  0  0  0  0  0  0  0  0
    0.2996    1.9723   -1.1133 H   0  0  0  1  0  0  0  0  0  0  0  0
    0.7271    0.6021   -2.5796 O   0  0  0  1  0  0  0  0  0  0  0  0
    0.3434   -0.2341   -2.8536 H   0  0  0  1  0  0  0  0  0  0  0  0
   -1.0880    0.3153   -0.9626 C   0  0  0  1  0  0  0  0  0  0  0  0
   -1.8555    1.0058   -1.2440 H   0  0  0  1  0  0  0  0  0  0  0  0
   -1.2594   -0.8926   -1.6694 O   0  0  0  1  0  0  0  0  0  0  0  0
   -0.4080   -1.3220   -1.7813 H   0  0  0  1  0  0  0  0  0  0  0  0
  1  2  1  0  0  0  0
  1  3  1  0  0  0  0
  3  4  1  0  0  0  0
  3  5  1  0  0  0  0
  3  6  1  0  0  0  0
  6  7  1  0  0  0  0
  6  8  1  0  0  0  0
  6  9  1  0  0  0  0
  8 17  1  0  0  0  0
  9 10  1  0  0  0  0
  9 11  1  0  0  0  0
  9 13  1  0  0  0  0
 11 12  1  0  0  0  0
 13 14  1  0  0  0  0
 13 15  1  0  0  0  0
 13 17  1  0  0  0  0
 15 16  1  0  0  0  0
 17 18  1  0  0  0  0
 17 19  1  0  0  0  0
 19 20  1  0  0  0  0
M  END
> <ConfClashScore>
0 

> <ConfOneFourInteractionScore>
-0.998705 

> <ConfScore>
0.169386 

> <ConfScorePBest>
0.0308866 

> <ConfTolerance>
0.25 

$$$$
RIB.****
  PyMOL2.4          3D                             0

 20 20  0  0  0  0  0  0  0  0999 V2000
   -0.4825    1.2499    2.9614 O   0  0  0  1  0  0  0  0  0  0  0  0
   -1.2741    1.7339    2.7149 H   0  0  0  1  0  0  0  0  0  0  0  0
    0.4566    1.2980    1.8916 C   0  0  0  1  0  0  0  0  0  0  0  0
    1.4493    1.3193    2.2905 H   0  0  0  1  0  0  0  0  0  0  0  0
    0.2869    2.1791    1.3088 H   0  0  0  1  0  0  0  0  0  0  0  0
    0.2933    0.0768    1.0155 C   0  0  0  1  0  0  0  0  0  0  0  0
    0.5328   -0.8012    1.5783 H   0  0  0  1  0  0  0  0  0  0  0  0
   -1.0681   -0.0038    0.5224 O   0  0  0  1  0  0  0  0  0  0  0  0
    1.2082    0.1822   -0.2107 C   0  0  0  1  0  0  0  0  0  0  0  0
    2.0041    0.8761   -0.0373 H   0  0  0  1  0  0  0  0  0  0  0  0
    1.7535   -1.0925   -0.5542 O   0  0  0  1  0  0  0  0  0  0  0  0
    1.2115   -1.7865   -0.1717 H   0  0  0  1  0  0  0  0  0  0  0  0
    0.2643    0.6906   -1.3081 C   0  0  0  1  0  0  0  0  0  0  0  0
    0.2373    1.7600   -1.3318 H   0  0  0  1  0  0  0  0  0  0  0  0
    0.6476    0.1944   -2.5924 O   0  0  0  1  0  0  0  0  0  0  0  0
    1.2956    0.7848   -2.9837 H   0  0  0  1  0  0  0  0  0  0  0  0
   -1.0917    0.1071   -0.8654 C   0  0  0  1  0  0  0  0  0  0  0  0
   -1.8851    0.7591   -1.1659 H   0  0  0  1  0  0  0  0  0  0  0  0
   -1.2773   -1.1383   -1.4347 O   0  0  0  1  0  0  0  0  0  0  0  0
   -1.7166   -1.0407   -2.2827 H   0  0  0  1  0  0  0  0  0  0  0  0
  1  2  1  0  0  0  0
  1  3  1  0  0  0  0
  3  4  1  0  0  0  0
  3  5  1  0  0  0  0
  3  6  1  0  0  0  0
  6  7  1  0  0  0  0
  6  8  1  0  0  0  0
  6  9  1  0  0  0  0
  8 17  1  0  0  0  0
  9 10  1  0  0  0  0
  9 11  1  0  0  0  0
  9 13  1  0  0  0  0
 11 12  1  0  0  0  0
 13 14  1  0  0  0  0
 13 15  1  0  0  0  0
 13 17  1  0  0  0  0
 15 16  1  0  0  0  0
 17 18  1  0  0  0  0
 17 19  1  0  0  0  0
 19 20  1  0  0  0  0
M  END
> <ConfClashScore>
0 

> <ConfOneFourInteractionScore>
-0.977576 

> <ConfScore>
0.180168 

> <ConfScorePBest>
0.0304611 

> <ConfTolerance>
0.25 

$$$$
RIB.****
  PyMOL2.4          3D                             0

 20 20  0  0  0  0  0  0  0  0999 V2000
   -0.6639   -0.5736    3.0641 O   0  0  0  1  0  0  0  0  0  0  0  0
   -1.5782   -0.2846    3.1105 H   0  0  0  1  0  0  0  0  0  0  0  0
    0.0722    0.3126    2.2312 C   0  0  0  1  0  0  0  0  0  0  0  0
    1.0413    0.4870    2.6499 H   0  0  0  1  0  0  0  0  0  0  0  0
   -0.4488    1.2424    2.1367 H   0  0  0  1  0  0  0  0  0  0  0  0
    0.2052   -0.3397    0.8849 C   0  0  0  1  0  0  0  0  0  0  0  0
    0.5931   -1.3297    1.0044 H   0  0  0  1  0  0  0  0  0  0  0  0
   -1.0711   -0.3913    0.2406 O   0  0  0  1  0  0  0  0  0  0  0  0
    1.1496    0.4902   -0.0099 C   0  0  0  1  0  0  0  0  0  0  0  0
    1.2111    1.5042    0.3261 H   0  0  0  1  0  0  0  0  0  0  0  0
    2.4589   -0.0792   -0.0495 O   0  0  0  1  0  0  0  0  0  0  0  0
    2.5699   -0.5711   -0.8664 H   0  0  0  1  0  0  0  0  0  0  0  0
    0.4521    0.3968   -1.3956 C   0  0  0  1  0  0  0  0  0  0  0  0
    0.6734    1.2479   -2.0050 H   0  0  0  1  0  0  0  0  0  0  0  0
    0.8218   -0.7957   -2.0895 O   0  0  0  1  0  0  0  0  0  0  0  0
    0.1796   -1.4853   -1.9063 H   0  0  0  1  0  0  0  0  0  0  0  0
   -1.0379    0.3709   -0.9748 C   0  0  0  1  0  0  0  0  0  0  0  0
   -1.3972    1.3643   -0.8047 H   0  0  0  1  0  0  0  0  0  0  0  0
   -1.8216   -0.2492   -1.9687 O   0  0  0  1  0  0  0  0  0  0  0  0
   -2.1931    0.4203   -2.5479 H   0  0  0  1  0  0  0  0  0  0  0  0
  1  2  1  0  0  0  0
  1  3  1  0  0  0  0
  3  4  1  0  0  0  0
  3  5  1  0  0  0  0
  3  6  1  0  0  0  0
  6  7  1  0  0  0  0
  6  8  1  0  0  0  0
  6  9  1  0  0  0  0
  8 17  1  0  0  0  0
  9 10  1  0  0  0  0
  9 11  1  0  0  0  0
  9 13  1  0  0  0  0
 11 12  1  0  0  0  0
 13 14  1  0  0  0  0
 13 15  1  0  0  0  0
 13 17  1  0  0  0  0
 15 16  1  0  0  0  0
 17 18  1  0  0  0  0
 17 19  1  0  0  0  0
 19 20  1  0  0  0  0
M  END
> <ConfClashScore>
0 

> <ConfOneFourInteractionScore>
-0.970024 

> <ConfScore>
0.182379 

> <ConfScorePBest>
0.0300357 

> <ConfTolerance>
0.25 

$$$$
RIB.****
  PyMOL2.4          3D                             0

 20 20  0  0  0  0  0  0  0  0999 V2000
   -0.6599    2.0761    0.9666 O   0  0  0  1  0  0  0  0  0  0  0  0
    0.0073    2.7352    0.7617 H   0  0  0  1  0  0  0  0  0  0  0  0
   -0.0905    1.0630    1.7852 C   0  0  0  1  0  0  0  0  0  0  0  0
   -0.8130    0.7397    2.5051 H   0  0  0  1  0  0  0  0  0  0  0  0
    0.7671    1.4548    2.2910 H   0  0  0  1  0  0  0  0  0  0  0  0
    0.3242   -0.1098    0.9285 C   0  0  0  1  0  0  0  0  0  0  0  0
    0.7920   -0.8520    1.5412 H   0  0  0  1  0  0  0  0  0  0  0  0
   -0.8116   -0.6623    0.2456 O   0  0  0  1  0  0  0  0  0  0  0  0
    1.2491    0.3339   -0.1558 C   0  0  0  1  0  0  0  0  0  0  0  0
    1.8118    1.1900    0.1531 H   0  0  0  1  0  0  0  0  0  0  0  0
    2.1435   -0.7186   -0.5197 O   0  0  0  1  0  0  0  0  0  0  0  0
    1.9963   -1.4760    0.0515 H   0  0  0  1  0  0  0  0  0  0  0  0
    0.3365    0.6812   -1.3064 C   0  0  0  1  0  0  0  0  0  0  0  0
    0.2914    1.7414   -1.4439 H   0  0  0  1  0  0  0  0  0  0  0  0
    0.7904    0.0630   -2.5114 O   0  0  0  1  0  0  0  0  0  0  0  0
    0.3354   -0.7734   -2.6336 H   0  0  0  1  0  0  0  0  0  0  0  0
   -1.0088    0.1424   -0.9110 C   0  0  0  1  0  0  0  0  0  0  0  0
   -1.6762    0.9485   -0.6881 H   0  0  0  1  0  0  0  0  0  0  0  0
   -1.5400   -0.6301   -1.9481 O   0  0  0  1  0  0  0  0  0  0  0  0
   -2.0775   -0.0753   -2.5181 H   0  0  0  1  0  0  0  0  0  0  0  0
  1  2  1  0  0  0  0
  1  3  1  0  0  0  0
  3  4  1  0  0  0  0
  3  5  1  0  0  0  0
  3  6  1  0  0  0  0
  6  7  1  0  0  0  0
  6  8  1  0  0  0  0
  6  9  1  0  0  0  0
  8 17  1  0  0  0  0
  9 10  1  0  0  0  0
  9 11  1  0  0  0  0
  9 13  1  0  0  0  0
 11 12  1  0  0  0  0
 13 14  1  0  0  0  0
 13 15  1  0  0  0  0
 13 17  1  0  0  0  0
 15 16  1  0  0  0  0
 17 18  1  0  0  0  0
 17 19  1  0  0  0  0
 19 20  1  0  0  0  0
M  END
> <ConfClashScore>
0 

> <ConfOneFourInteractionScore>
-0.9965 

> <ConfScore>
0.186013 

> <ConfScorePBest>
0.0296102 

> <ConfTolerance>
0.25 

$$$$
RIB.****
  PyMOL2.4          3D                             0

 20 20  0  0  0  0  0  0  0  0999 V2000
    0.3186    1.5538    2.4256 O   0  0  0  1  0  0  0  0  0  0  0  0
   -0.5454    1.8637    2.1445 H   0  0  0  1  0  0  0  0  0  0  0  0
    0.4179    0.1513    2.1976 C   0  0  0  1  0  0  0  0  0  0  0  0
   -0.3031   -0.3481    2.8105 H   0  0  0  1  0  0  0  0  0  0  0  0
    1.4015   -0.1717    2.4680 H   0  0  0  1  0  0  0  0  0  0  0  0
    0.1657   -0.2186    0.7516 C   0  0  0  1  0  0  0  0  0  0  0  0
    0.2377   -1.2800    0.6366 H   0  0  0  1  0  0  0  0  0  0  0  0
   -1.1131    0.2334    0.3453 O   0  0  0  1  0  0  0  0  0  0  0  0
    1.1544    0.4686   -0.1403 C   0  0  0  1  0  0  0  0  0  0  0  0
    1.5000    1.3776    0.3059 H   0  0  0  1  0  0  0  0  0  0  0  0
    2.2685   -0.3828   -0.4121 O   0  0  0  1  0  0  0  0  0  0  0  0
    1.9952   -1.3004   -0.3420 H   0  0  0  1  0  0  0  0  0  0  0  0
    0.3844    0.7515   -1.3930 C   0  0  0  1  0  0  0  0  0  0  0  0
    0.5066    1.7740   -1.6836 H   0  0  0  1  0  0  0  0  0  0  0  0
    0.8241   -0.1008   -2.4515 O   0  0  0  1  0  0  0  0  0  0  0  0
    1.1105   -0.9418   -2.0878 H   0  0  0  1  0  0  0  0  0  0  0  0
   -1.0452    0.4718   -1.0580 C   0  0  0  1  0  0  0  0  0  0  0  0
   -1.6530    1.3138   -1.3160 H   0  0  0  1  0  0  0  0  0  0  0  0
   -1.4833   -0.6422   -1.7484 O   0  0  0  1  0  0  0  0  0  0  0  0
   -2.4042   -0.8097   -1.5351 H   0  0  0  1  0  0  0  0  0  0  0  0
  1  2  1  0  0  0  0
  1  3  1  0  0  0  0
  3  4  1  0  0  0  0
  3  5  1  0  0  0  0
  3  6  1  0  0  0  0
  6  7  1  0  0  0  0
  6  8  1  0  0  0  0
  6  9  1  0  0  0  0
  8 17  1  0  0  0  0
  9 10  1  0  0  0  0
  9 11  1  0  0  0  0
  9 13  1  0  0  0  0
 11 12  1  0  0  0  0
 13 14  1  0  0  0  0
 13 15  1  0  0  0  0
 13 17  1  0  0  0  0
 15 16  1  0  0  0  0
 17 18  1  0  0  0  0
 17 19  1  0  0  0  0
 19 20  1  0  0  0  0
M  END
> <ConfClashScore>
0 

> <ConfOneFourInteractionScore>
-0.998705 

> <ConfScore>
0.195025 

> <ConfScorePBest>
0.0291848 

> <ConfTolerance>
0.25 

$$$$
RIB.****
  PyMOL2.4          3D                             0

 20 20  0  0  0  0  0  0  0  0999 V2000
   -0.2859    1.9269    1.8154 O   0  0  0  1  0  0  0  0  0  0  0  0
   -0.8610    1.8829    1.0480 H   0  0  0  1  0  0  0  0  0  0  0  0
    0.2538    0.6384    2.0783 C   0  0  0  1  0  0  0  0  0  0  0  0
   -0.3442    0.1463    2.8167 H   0  0  0  1  0  0  0  0  0  0  0  0
    1.2558    0.7395    2.4396 H   0  0  0  1  0  0  0  0  0  0  0  0
    0.2580   -0.1766    0.8141 C   0  0  0  1  0  0  0  0  0  0  0  0
    0.5728   -1.1753    1.0341 H   0  0  0  1  0  0  0  0  0  0  0  0
   -1.0457   -0.1959    0.2491 O   0  0  0  1  0  0  0  0  0  0  0  0
    1.1389    0.4082   -0.1323 C   0  0  0  1  0  0  0  0  0  0  0  0
    1.5862    1.2871    0.2828 H   0  0  0  1  0  0  0  0  0  0  0  0
    2.1606   -0.5257   -0.4848 O   0  0  0  1  0  0  0  0  0  0  0  0
    1.8864   -1.4107   -0.2332 H   0  0  0  1  0  0  0  0  0  0  0  0
    0.3817    0.7510   -1.2837 C   0  0  0  1  0  0  0  0  0  0  0  0
    0.4411    1.8053   -1.4568 H   0  0  0  1  0  0  0  0  0  0  0  0
    0.8869    0.0518   -2.4221 O   0  0  0  1  0  0  0  0  0  0  0  0
    0.5652   -0.8526   -2.4114 H   0  0  0  1  0  0  0  0  0  0  0  0
   -0.9691    0.3762   -1.0477 C   0  0  0  1  0  0  0  0  0  0  0  0
   -1.5998    1.2389   -1.1016 H   0  0  0  1  0  0  0  0  0  0  0  0
   -1.3708   -0.5487   -1.9925 O   0  0  0  1  0  0  0  0  0  0  0  0
   -2.2802   -0.8053   -1.8233 H   0  0  0  1  0  0  0  0  0  0  0  0
  1  2  1  0  0  0  0
  1  3  1  0  0  0  0
  3  4  1  0  0  0  0
  3  5  1  0  0  0  0
  3  6  1  0  0  0  0
  6  7  1  0  0  0  0
  6  8  1  0  0  0  0
  6  9  1  0  0  0  0
  8 17  1  0  0  0  0
  9 10  1  0  0  0  0
  9 11  1  0  0  0  0
  9 13  1  0  0  0  0
 11 12  1  0  0  0  0
 13 14  1  0  0  0  0
 13 15  1  0  0  0  0
 13 17  1  0  0  0  0
 15 16  1  0  0  0  0
 17 18  1  0  0  0  0
 17 19  1  0  0  0  0
 19 20  1  0  0  0  0
M  END
> <ConfClashScore>
0 

> <ConfOneFourInteractionScore>
-0.998705 

> <ConfScore>
0.195084 

> <ConfScorePBest>
0.0287593 

> <ConfTolerance>
0.25 

$$$$
RIB.****
  PyMOL2.4          3D                             0

 20 20  0  0  0  0  0  0  0  0999 V2000
   -0.7605    0.5907    2.9211 O   0  0  0  1  0  0  0  0  0  0  0  0
   -0.2937    0.8380    3.7227 H   0  0  0  1  0  0  0  0  0  0  0  0
   -0.0612    1.0925    1.7913 C   0  0  0  1  0  0  0  0  0  0  0  0
    0.8177    1.6142    2.1078 H   0  0  0  1  0  0  0  0  0  0  0  0
   -0.6910    1.7571    1.2375 H   0  0  0  1  0  0  0  0  0  0  0  0
    0.3233   -0.0942    0.9298 C   0  0  0  1  0  0  0  0  0  0  0  0
    0.8016   -0.8352    1.5355 H   0  0  0  1  0  0  0  0  0  0  0  0
   -0.8343   -0.6430    0.2814 O   0  0  0  1  0  0  0  0  0  0  0  0
    1.2224    0.3344   -0.1820 C   0  0  0  1  0  0  0  0  0  0  0  0
    1.7994    1.1885    0.1054 H   0  0  0  1  0  0  0  0  0  0  0  0
    2.0990   -0.7276   -0.5613 O   0  0  0  1  0  0  0  0  0  0  0  0
    1.6950   -1.5704   -0.3421 H   0  0  0  1  0  0  0  0  0  0  0  0
    0.2822    0.6800   -1.3107 C   0  0  0  1  0  0  0  0  0  0  0  0
    0.2414    1.7394   -1.4551 H   0  0  0  1  0  0  0  0  0  0  0  0
    0.6997    0.0491   -2.5231 O   0  0  0  1  0  0  0  0  0  0  0  0
    1.1441   -0.7767   -2.3180 H   0  0  0  1  0  0  0  0  0  0  0  0
   -1.0560    0.1545   -0.8757 C   0  0  0  1  0  0  0  0  0  0  0  0
   -1.7113    0.9673   -0.6415 H   0  0  0  1  0  0  0  0  0  0  0  0
   -1.6229   -0.6253   -1.8972 O   0  0  0  1  0  0  0  0  0  0  0  0
   -2.1565   -0.0673   -2.4677 H   0  0  0  1  0  0  0  0  0  0  0  0
  1  2  1  0  0  0  0
  1  3  1  0  0  0  0
  3  4  1  0  0  0  0
  3  5  1  0  0  0  0
  3  6  1  0  0  0  0
  6  7  1  0  0  0  0
  6  8  1  0  0  0  0
  6  9  1  0  0  0  0
  8 17  1  0  0  0  0
  9 10  1  0  0  0  0
  9 11  1  0  0  0  0
  9 13  1  0  0  0  0
 11 12  1  0  0  0  0
 13 14  1  0  0  0  0
 13 15  1  0  0  0  0
 13 17  1  0  0  0  0
 15 16  1  0  0  0  0
 17 18  1  0  0  0  0
 17 19  1  0  0  0  0
 19 20  1  0  0  0  0
M  END
> <ConfClashScore>
0 

> <ConfOneFourInteractionScore>
-0.970024 

> <ConfScore>
0.197512 

> <ConfScorePBest>
0.0283338 

> <ConfTolerance>
0.25 

$$$$
RIB.****
  PyMOL2.4          3D                             0

 20 20  0  0  0  0  0  0  0  0999 V2000
   -0.2445   -0.0413    3.2636 O   0  0  0  1  0  0  0  0  0  0  0  0
    0.3010   -0.3080    4.0073 H   0  0  0  1  0  0  0  0  0  0  0  0
    0.5867    0.4493    2.2161 C   0  0  0  1  0  0  0  0  0  0  0  0
    1.5962    0.1395    2.3885 H   0  0  0  1  0  0  0  0  0  0  0  0
    0.5396    1.5181    2.1957 H   0  0  0  1  0  0  0  0  0  0  0  0
    0.1152   -0.0963    0.8989 C   0  0  0  1  0  0  0  0  0  0  0  0
   -0.0199   -1.1547    0.9785 H   0  0  0  1  0  0  0  0  0  0  0  0
   -1.1087    0.5291    0.5164 O   0  0  0  1  0  0  0  0  0  0  0  0
    1.1087    0.2189   -0.1769 C   0  0  0  1  0  0  0  0  0  0  0  0
    1.7207    1.0501    0.1049 H   0  0  0  1  0  0  0  0  0  0  0  0
    1.9369   -0.9130   -0.4470 O   0  0  0  1  0  0  0  0  0  0  0  0
    2.7468   -0.8468    0.0642 H   0  0  0  1  0  0  0  0  0  0  0  0
    0.2590    0.5636   -1.3873 C   0  0  0  1  0  0  0  0  0  0  0  0
    0.4363    1.5716   -1.6994 H   0  0  0  1  0  0  0  0  0  0  0  0
    0.5368   -0.3268   -2.4699 O   0  0  0  1  0  0  0  0  0  0  0  0
    1.3165   -0.0246   -2.9415 H   0  0  0  1  0  0  0  0  0  0  0  0
   -1.1713    0.3941   -0.9059 C   0  0  0  1  0  0  0  0  0  0  0  0
   -1.8004    1.1504   -1.3268 H   0  0  0  1  0  0  0  0  0  0  0  0
   -1.6640   -0.8790   -1.2600 O   0  0  0  1  0  0  0  0  0  0  0  0
   -2.1334   -0.8199   -2.0953 H   0  0  0  1  0  0  0  0  0  0  0  0
  1  2  1  0  0  0  0
  1  3  1  0  0  0  0
  3  4  1  0  0  0  0
  3  5  1  0  0  0  0
  3  6  1  0  0  0  0
  6  7  1  0  0  0  0
  6  8  1  0  0  0  0
  6  9  1  0  0  0  0
  8 17  1  0  0  0  0
  9 10  1  0  0  0  0
  9 11  1  0  0  0  0
  9 13  1  0  0  0  0
 11 12  1  0  0  0  0
 13 14  1  0  0  0  0
 13 15  1  0  0  0  0
 13 17  1  0  0  0  0
 15 16  1  0  0  0  0
 17 18  1  0  0  0  0
 17 19  1  0  0  0  0
 19 20  1  0  0  0  0
M  END
> <ConfClashScore>
0 

> <ConfOneFourInteractionScore>
-0.970024 

> <ConfScore>
0.20144 

> <ConfScorePBest>
0.0279084 

> <ConfTolerance>
0.25 

$$$$
RIB.****
  PyMOL2.4          3D                             0

 20 20  0  0  0  0  0  0  0  0999 V2000
   -0.4171    1.9412    1.4351 O   0  0  0  1  0  0  0  0  0  0  0  0
   -1.3558    1.9875    1.2394 H   0  0  0  1  0  0  0  0  0  0  0  0
   -0.1029    0.6544    1.9508 C   0  0  0  1  0  0  0  0  0  0  0  0
   -0.9123    0.3074    2.5585 H   0  0  0  1  0  0  0  0  0  0  0  0
    0.7868    0.7158    2.5421 H   0  0  0  1  0  0  0  0  0  0  0  0
    0.1187   -0.3131    0.8072 C   0  0  0  1  0  0  0  0  0  0  0  0
    0.4572   -1.2516    1.1938 H   0  0  0  1  0  0  0  0  0  0  0  0
   -1.0934   -0.4941    0.0802 O   0  0  0  1  0  0  0  0  0  0  0  0
    1.1292    0.2424   -0.1439 C   0  0  0  1  0  0  0  0  0  0  0  0
    1.5676    1.1331    0.2553 H   0  0  0  1  0  0  0  0  0  0  0  0
    2.1534   -0.7194   -0.4007 O   0  0  0  1  0  0  0  0  0  0  0  0
    2.9892   -0.2681   -0.5400 H   0  0  0  1  0  0  0  0  0  0  0  0
    0.3739    0.5494   -1.3999 C   0  0  0  1  0  0  0  0  0  0  0  0
    0.5835    1.5436   -1.7352 H   0  0  0  1  0  0  0  0  0  0  0  0
    0.7065   -0.3824   -2.4319 O   0  0  0  1  0  0  0  0  0  0  0  0
    0.9998   -1.2068   -2.0370 H   0  0  0  1  0  0  0  0  0  0  0  0
   -1.0654    0.4141   -1.0057 C   0  0  0  1  0  0  0  0  0  0  0  0
   -1.4586    1.3630   -0.7058 H   0  0  0  1  0  0  0  0  0  0  0  0
   -1.8077   -0.0799   -2.0632 O   0  0  0  1  0  0  0  0  0  0  0  0
   -2.6850   -0.3186   -1.7550 H   0  0  0  1  0  0  0  0  0  0  0  0
  1  2  1  0  0  0  0
  1  3  1  0  0  0  0
  3  4  1  0  0  0  0
  3  5  1  0  0  0  0
  3  6  1  0  0  0  0
  6  7  1  0  0  0  0
  6  8  1  0  0  0  0
  6  9  1  0  0  0  0
  8 17  1  0  0  0  0
  9 10  1  0  0  0  0
  9 11  1  0  0  0  0
  9 13  1  0  0  0  0
 11 12  1  0  0  0  0
 13 14  1  0  0  0  0
 13 15  1  0  0  0  0
 13 17  1  0  0  0  0
 15 16  1  0  0  0  0
 17 18  1  0  0  0  0
 17 19  1  0  0  0  0
 19 20  1  0  0  0  0
M  END
> <ConfClashScore>
0 

> <ConfOneFourInteractionScore>
-0.9965 

> <ConfScore>
0.204099 

> <ConfScorePBest>
0.0274829 

> <ConfTolerance>
0.341318 

$$$$
RIB.****
  PyMOL2.4          3D                             0

 20 20  0  0  0  0  0  0  0  0999 V2000
   -0.9090    0.3020    2.9897 O   0  0  0  1  0  0  0  0  0  0  0  0
   -0.4063   -0.2748    3.5696 H   0  0  0  1  0  0  0  0  0  0  0  0
   -0.0502    0.8310    1.9841 C   0  0  0  1  0  0  0  0  0  0  0  0
    0.8530    1.1695    2.4473 H   0  0  0  1  0  0  0  0  0  0  0  0
   -0.5411    1.6568    1.5129 H   0  0  0  1  0  0  0  0  0  0  0  0
    0.2981   -0.1853    0.9346 C   0  0  0  1  0  0  0  0  0  0  0  0
    0.7785   -1.0235    1.3945 H   0  0  0  1  0  0  0  0  0  0  0  0
   -0.8815   -0.6106    0.2576 O   0  0  0  1  0  0  0  0  0  0  0  0
    1.2022    0.4246   -0.0876 C   0  0  0  1  0  0  0  0  0  0  0  0
    1.5063    1.4035    0.2195 H   0  0  0  1  0  0  0  0  0  0  0  0
    2.3565   -0.3936   -0.2837 O   0  0  0  1  0  0  0  0  0  0  0  0
    2.1452   -1.3038   -0.0634 H   0  0  0  1  0  0  0  0  0  0  0  0
    0.3947    0.4992   -1.3463 C   0  0  0  1  0  0  0  0  0  0  0  0
    0.4484    1.4785   -1.7740 H   0  0  0  1  0  0  0  0  0  0  0  0
    0.8514   -0.4632   -2.2992 O   0  0  0  1  0  0  0  0  0  0  0  0
    0.1373   -0.6802   -2.9030 H   0  0  0  1  0  0  0  0  0  0  0  0
   -1.0031    0.1881   -0.9053 C   0  0  0  1  0  0  0  0  0  0  0  0
   -1.5310    1.0914   -0.6812 H   0  0  0  1  0  0  0  0  0  0  0  0
   -1.6750   -0.5059   -1.8953 O   0  0  0  1  0  0  0  0  0  0  0  0
   -2.1118    0.1156   -2.4823 H   0  0  0  1  0  0  0  0  0  0  0  0
  1  2  1  0  0  0  0
  1  3  1  0  0  0  0
  3  4  1  0  0  0  0
  3  5  1  0  0  0  0
  3  6  1  0  0  0  0
  6  7  1  0  0  0  0
  6  8  1  0  0  0  0
  6  9  1  0  0  0  0
  8 17  1  0  0  0  0
  9 10  1  0  0  0  0
  9 11  1  0  0  0  0
  9 13  1  0  0  0  0
 11 12  1  0  0  0  0
 13 14  1  0  0  0  0
 13 15  1  0  0  0  0
 13 17  1  0  0  0  0
 15 16  1  0  0  0  0
 17 18  1  0  0  0  0
 17 19  1  0  0  0  0
 19 20  1  0  0  0  0
M  END
> <ConfClashScore>
0 

> <ConfOneFourInteractionScore>
-0.970024 

> <ConfScore>
0.208756 

> <ConfScorePBest>
0.0270574 

> <ConfTolerance>
0.253831 

$$$$
RIB.****
  PyMOL2.4          3D                             0

 20 20  0  0  0  0  0  0  0  0999 V2000
   -0.7776   -0.3345    3.0965 O   0  0  0  1  0  0  0  0  0  0  0  0
   -0.4810   -0.6582    3.9502 H   0  0  0  1  0  0  0  0  0  0  0  0
    0.3458    0.0645    2.3243 C   0  0  0  1  0  0  0  0  0  0  0  0
    1.2153   -0.4573    2.6657 H   0  0  0  1  0  0  0  0  0  0  0  0
    0.4959    1.1183    2.4331 H   0  0  0  1  0  0  0  0  0  0  0  0
    0.1052   -0.2592    0.8755 C   0  0  0  1  0  0  0  0  0  0  0  0
    0.1133   -1.3206    0.7405 H   0  0  0  1  0  0  0  0  0  0  0  0
   -1.1430    0.2970    0.4337 O   0  0  0  1  0  0  0  0  0  0  0  0
    1.1427    0.3907    0.0103 C   0  0  0  1  0  0  0  0  0  0  0  0
    1.4164    1.3514    0.3937 H   0  0  0  1  0  0  0  0  0  0  0  0
    2.3074   -0.4289   -0.0983 O   0  0  0  1  0  0  0  0  0  0  0  0
    2.7197   -0.2882   -0.9537 H   0  0  0  1  0  0  0  0  0  0  0  0
    0.4398    0.5176   -1.3253 C   0  0  0  1  0  0  0  0  0  0  0  0
    0.6939    1.4438   -1.7969 H   0  0  0  1  0  0  0  0  0  0  0  0
    0.7947   -0.5679   -2.1839 O   0  0  0  1  0  0  0  0  0  0  0  0
    0.2596   -1.3352   -1.9683 H   0  0  0  1  0  0  0  0  0  0  0  0
   -1.0381    0.4755   -0.9985 C   0  0  0  1  0  0  0  0  0  0  0  0
   -1.5065    1.3920   -1.2909 H   0  0  0  1  0  0  0  0  0  0  0  0
   -1.6508   -0.5980   -1.6659 O   0  0  0  1  0  0  0  0  0  0  0  0
   -2.1339   -0.2683   -2.4272 H   0  0  0  1  0  0  0  0  0  0  0  0
  1  2  1  0  0  0  0
  1  3  1  0  0  0  0
  3  4  1  0  0  0  0
  3  5  1  0  0  0  0
  3  6  1  0  0  0  0
  6  7  1  0  0  0  0
  6  8  1  0  0  0  0
  6  9  1  0  0  0  0
  8 17  1  0  0  0  0
  9 10  1  0  0  0  0
  9 11  1  0  0  0  0
  9 13  1  0  0  0  0
 11 12  1  0  0  0  0
 13 14  1  0  0  0  0
 13 15  1  0  0  0  0
 13 17  1  0  0  0  0
 15 16  1  0  0  0  0
 17 18  1  0  0  0  0
 17 19  1  0  0  0  0
 19 20  1  0  0  0  0
M  END
> <ConfClashScore>
0 

> <ConfOneFourInteractionScore>
-0.977576 

> <ConfScore>
0.213489 

> <ConfScorePBest>
0.026632 

> <ConfTolerance>
0.329692 

$$$$
RIB.****
  PyMOL2.4          3D                             0

 20 20  0  0  0  0  0  0  0  0999 V2000
    0.5062    2.1948    1.9519 O   0  0  0  1  0  0  0  0  0  0  0  0
   -0.1694    2.3524    1.2883 H   0  0  0  1  0  0  0  0  0  0  0  0
    0.6105    0.8003    2.2006 C   0  0  0  1  0  0  0  0  0  0  0  0
   -0.0167    0.5385    3.0271 H   0  0  0  1  0  0  0  0  0  0  0  0
    1.6261    0.5551    2.4312 H   0  0  0  1  0  0  0  0  0  0  0  0
    0.1736    0.0305    0.9748 C   0  0  0  1  0  0  0  0  0  0  0  0
    0.1417   -1.0146    1.2019 H   0  0  0  1  0  0  0  0  0  0  0  0
   -1.1085    0.4770    0.5491 O   0  0  0  1  0  0  0  0  0  0  0  0
    1.1260    0.2829   -0.1590 C   0  0  0  1  0  0  0  0  0  0  0  0
    1.7954    1.0819    0.0829 H   0  0  0  1  0  0  0  0  0  0  0  0
    1.8775   -0.8956   -0.4554 O   0  0  0  1  0  0  0  0  0  0  0  0
    1.2870   -1.6517   -0.4908 H   0  0  0  1  0  0  0  0  0  0  0  0
    0.2493    0.6609   -1.3278 C   0  0  0  1  0  0  0  0  0  0  0  0
    0.3322    1.7062   -1.5409 H   0  0  0  1  0  0  0  0  0  0  0  0
    0.6026   -0.0919   -2.4891 O   0  0  0  1  0  0  0  0  0  0  0  0
    1.1503    0.4461   -3.0654 H   0  0  0  1  0  0  0  0  0  0  0  0
   -1.1328    0.3212   -0.8781 C   0  0  0  1  0  0  0  0  0  0  0  0
   -1.8453    0.9880   -1.3168 H   0  0  0  1  0  0  0  0  0  0  0  0
   -1.4542   -1.0054   -1.2256 O   0  0  0  1  0  0  0  0  0  0  0  0
   -0.9392   -1.2698   -1.9914 H   0  0  0  1  0  0  0  0  0  0  0  0
  1  2  1  0  0  0  0
  1  3  1  0  0  0  0
  3  4  1  0  0  0  0
  3  5  1  0  0  0  0
  3  6  1  0  0  0  0
  6  7  1  0  0  0  0
  6  8  1  0  0  0  0
  6  9  1  0  0  0  0
  8 17  1  0  0  0  0
  9 10  1  0  0  0  0
  9 11  1  0  0  0  0
  9 13  1  0  0  0  0
 11 12  1  0  0  0  0
 13 14  1  0  0  0  0
 13 15  1  0  0  0  0
 13 17  1  0  0  0  0
 15 16  1  0  0  0  0
 17 18  1  0  0  0  0
 17 19  1  0  0  0  0
 19 20  1  0  0  0  0
M  END
> <ConfClashScore>
0 

> <ConfOneFourInteractionScore>
-0.998705 

> <ConfScore>
0.219775 

> <ConfScorePBest>
0.0262065 

> <ConfTolerance>
0.25 

$$$$
RIB.****
  PyMOL2.4          3D                             0

 20 20  0  0  0  0  0  0  0  0999 V2000
   -0.6975    0.2368    3.0349 O   0  0  0  1  0  0  0  0  0  0  0  0
   -0.3249    0.3249    3.9152 H   0  0  0  1  0  0  0  0  0  0  0  0
    0.2431    0.6961    2.0733 C   0  0  0  1  0  0  0  0  0  0  0  0
    1.2349    0.6222    2.4682 H   0  0  0  1  0  0  0  0  0  0  0  0
    0.0358    1.7140    1.8168 H   0  0  0  1  0  0  0  0  0  0  0  0
    0.1087   -0.1762    0.8584 C   0  0  0  1  0  0  0  0  0  0  0  0
    0.2593   -1.1989    1.1346 H   0  0  0  1  0  0  0  0  0  0  0  0
   -1.1825   -0.0158    0.2910 O   0  0  0  1  0  0  0  0  0  0  0  0
    1.0686    0.2058   -0.1180 C   0  0  0  1  0  0  0  0  0  0  0  0
    1.6554    1.0217    0.2493 H   0  0  0  1  0  0  0  0  0  0  0  0
    1.9227   -0.8994   -0.4165 O   0  0  0  1  0  0  0  0  0  0  0  0
    2.8137   -0.7061   -0.1159 H   0  0  0  1  0  0  0  0  0  0  0  0
    0.3688    0.6038   -1.2879 C   0  0  0  1  0  0  0  0  0  0  0  0
    0.5973    1.6234   -1.5183 H   0  0  0  1  0  0  0  0  0  0  0  0
    0.7461   -0.2292   -2.3851 O   0  0  0  1  0  0  0  0  0  0  0  0
    0.0618   -0.2026   -3.0578 H   0  0  0  1  0  0  0  0  0  0  0  0
   -1.0211    0.4672   -1.0356 C   0  0  0  1  0  0  0  0  0  0  0  0
   -1.5032    1.4170   -1.1370 H   0  0  0  1  0  0  0  0  0  0  0  0
   -1.5830   -0.4435   -1.9456 O   0  0  0  1  0  0  0  0  0  0  0  0
   -1.6898   -1.2973   -1.5199 H   0  0  0  1  0  0  0  0  0  0  0  0
  1  2  1  0  0  0  0
  1  3  1  0  0  0  0
  3  4  1  0  0  0  0
  3  5  1  0  0  0  0
  3  6  1  0  0  0  0
  6  7  1  0  0  0  0
  6  8  1  0  0  0  0
  6  9  1  0  0  0  0
  8 17  1  0  0  0  0
  9 10  1  0  0  0  0
  9 11  1  0  0  0  0
  9 13  1  0  0  0  0
 11 12  1  0  0  0  0
 13 14  1  0  0  0  0
 13 15  1  0  0  0  0
 13 17  1  0  0  0  0
 15 16  1  0  0  0  0
 17 18  1  0  0  0  0
 17 19  1  0  0  0  0
 19 20  1  0  0  0  0
M  END
> <ConfClashScore>
0 

> <ConfOneFourInteractionScore>
-0.970024 

> <ConfScore>
0.234716 

> <ConfScorePBest>
0.025781 

> <ConfTolerance>
0.433051 

$$$$
RIB.****
  PyMOL2.4          3D                             0

 20 20  0  0  0  0  0  0  0  0999 V2000
    1.4252    0.5077    2.9240 O   0  0  0  1  0  0  0  0  0  0  0  0
    1.4652   -0.1964    3.5753 H   0  0  0  1  0  0  0  0  0  0  0  0
    0.1859    0.4566    2.2504 C   0  0  0  1  0  0  0  0  0  0  0  0
   -0.1334    1.4604    2.0625 H   0  0  0  1  0  0  0  0  0  0  0  0
   -0.5214   -0.0295    2.8894 H   0  0  0  1  0  0  0  0  0  0  0  0
    0.2167   -0.2831    0.9322 C   0  0  0  1  0  0  0  0  0  0  0  0
    0.5931   -1.2727    1.0867 H   0  0  0  1  0  0  0  0  0  0  0  0
   -1.1004   -0.3442    0.3772 O   0  0  0  1  0  0  0  0  0  0  0  0
    1.1147    0.4698   -0.0718 C   0  0  0  1  0  0  0  0  0  0  0  0
    1.2175    1.5005    0.1965 H   0  0  0  1  0  0  0  0  0  0  0  0
    2.4076   -0.1306   -0.1620 O   0  0  0  1  0  0  0  0  0  0  0  0
    2.3681   -0.8898   -0.7482 H   0  0  0  1  0  0  0  0  0  0  0  0
    0.3246    0.3093   -1.4004 C   0  0  0  1  0  0  0  0  0  0  0  0
    0.5208    1.1170   -2.0742 H   0  0  0  1  0  0  0  0  0  0  0  0
    0.6248   -0.9308   -2.0425 O   0  0  0  1  0  0  0  0  0  0  0  0
    1.4402   -0.8440   -2.5417 H   0  0  0  1  0  0  0  0  0  0  0  0
   -1.1341    0.3427   -0.8822 C   0  0  0  1  0  0  0  0  0  0  0  0
   -1.4626    1.3524   -0.7503 H   0  0  0  1  0  0  0  0  0  0  0  0
   -1.9940   -0.3179   -1.7828 O   0  0  0  1  0  0  0  0  0  0  0  0
   -2.4571    0.3307   -2.3179 H   0  0  0  1  0  0  0  0  0  0  0  0
  1  2  1  0  0  0  0
  1  3  1  0  0  0  0
  3  4  1  0  0  0  0
  3  5  1  0  0  0  0
  3  6  1  0  0  0  0
  6  7  1  0  0  0  0
  6  8  1  0  0  0  0
  6  9  1  0  0  0  0
  8 17  1  0  0  0  0
  9 10  1  0  0  0  0
  9 11  1  0  0  0  0
  9 13  1  0  0  0  0
 11 12  1  0  0  0  0
 13 14  1  0  0  0  0
 13 15  1  0  0  0  0
 13 17  1  0  0  0  0
 15 16  1  0  0  0  0
 17 18  1  0  0  0  0
 17 19  1  0  0  0  0
 19 20  1  0  0  0  0
M  END
> <ConfClashScore>
0 

> <ConfOneFourInteractionScore>
-0.970024 

> <ConfScore>
0.245856 

> <ConfScorePBest>
0.0253556 

> <ConfTolerance>
0.25 

$$$$
RIB.****
  PyMOL2.4          3D                             0

 20 20  0  0  0  0  0  0  0  0999 V2000
    1.8534    1.0582    2.4358 O   0  0  0  1  0  0  0  0  0  0  0  0
    2.3177    1.6741    1.8642 H   0  0  0  1  0  0  0  0  0  0  0  0
    0.4783    1.0225    2.0771 C   0  0  0  1  0  0  0  0  0  0  0  0
    0.1776    1.9868    1.7242 H   0  0  0  1  0  0  0  0  0  0  0  0
   -0.1058    0.7575    2.9336 H   0  0  0  1  0  0  0  0  0  0  0  0
    0.2647    0.0054    0.9932 C   0  0  0  1  0  0  0  0  0  0  0  0
    0.4445   -0.9748    1.3827 H   0  0  0  1  0  0  0  0  0  0  0  0
   -1.0799    0.0980    0.4838 O   0  0  0  1  0  0  0  0  0  0  0  0
    1.1991    0.2841   -0.1804 C   0  0  0  1  0  0  0  0  0  0  0  0
    1.9557    0.9884    0.0959 H   0  0  0  1  0  0  0  0  0  0  0  0
    1.8140   -0.9221   -0.6357 O   0  0  0  1  0  0  0  0  0  0  0  0
    1.2094   -1.6571   -0.5102 H   0  0  0  1  0  0  0  0  0  0  0  0
    0.2938    0.8599   -1.2461 C   0  0  0  1  0  0  0  0  0  0  0  0
    0.2512    1.9269   -1.1778 H   0  0  0  1  0  0  0  0  0  0  0  0
    0.7348    0.4829   -2.5513 O   0  0  0  1  0  0  0  0  0  0  0  0
    1.0073   -0.4376   -2.5440 H   0  0  0  1  0  0  0  0  0  0  0  0
   -1.0651    0.2348   -0.9241 C   0  0  0  1  0  0  0  0  0  0  0  0
   -1.8595    0.8742   -1.2482 H   0  0  0  1  0  0  0  0  0  0  0  0
   -1.1901   -1.0138   -1.5405 O   0  0  0  1  0  0  0  0  0  0  0  0
   -1.5923   -0.9054   -2.4054 H   0  0  0  1  0  0  0  0  0  0  0  0
  1  2  1  0  0  0  0
  1  3  1  0  0  0  0
  3  4  1  0  0  0  0
  3  5  1  0  0  0  0
  3  6  1  0  0  0  0
  6  7  1  0  0  0  0
  6  8  1  0  0  0  0
  6  9  1  0  0  0  0
  8 17  1  0  0  0  0
  9 10  1  0  0  0  0
  9 11  1  0  0  0  0
  9 13  1  0  0  0  0
 11 12  1  0  0  0  0
 13 14  1  0  0  0  0
 13 15  1  0  0  0  0
 13 17  1  0  0  0  0
 15 16  1  0  0  0  0
 17 18  1  0  0  0  0
 17 19  1  0  0  0  0
 19 20  1  0  0  0  0
M  END
> <ConfClashScore>
0 

> <ConfOneFourInteractionScore>
-0.970024 

> <ConfScore>
0.25525 

> <ConfScorePBest>
0.0249301 

> <ConfTolerance>
0.25 

$$$$
RIB.****
  PyMOL2.4          3D                             0

 20 20  0  0  0  0  0  0  0  0999 V2000
    1.4254    1.8138    2.3930 O   0  0  0  1  0  0  0  0  0  0  0  0
    1.7421    1.0737    2.9160 H   0  0  0  1  0  0  0  0  0  0  0  0
    0.2107    1.4540    1.7483 C   0  0  0  1  0  0  0  0  0  0  0  0
   -0.0125    2.1879    1.0023 H   0  0  0  1  0  0  0  0  0  0  0  0
   -0.5726    1.4359    2.4771 H   0  0  0  1  0  0  0  0  0  0  0  0
    0.2875    0.1137    1.0941 C   0  0  0  1  0  0  0  0  0  0  0  0
    0.6219   -0.6124    1.8055 H   0  0  0  1  0  0  0  0  0  0  0  0
   -1.0083   -0.2655    0.5384 O   0  0  0  1  0  0  0  0  0  0  0  0
    1.2096    0.1543   -0.1029 C   0  0  0  1  0  0  0  0  0  0  0  0
    2.0062    0.8517    0.0517 H   0  0  0  1  0  0  0  0  0  0  0  0
    1.7534   -1.1387   -0.3724 O   0  0  0  1  0  0  0  0  0  0  0  0
    1.1708   -1.6131   -0.9701 H   0  0  0  1  0  0  0  0  0  0  0  0
    0.2934    0.6129   -1.2453 C   0  0  0  1  0  0  0  0  0  0  0  0
    0.2761    1.6801   -1.3211 H   0  0  0  1  0  0  0  0  0  0  0  0
    0.7065    0.0530   -2.4927 O   0  0  0  1  0  0  0  0  0  0  0  0
    1.3998    0.5966   -2.8740 H   0  0  0  1  0  0  0  0  0  0  0  0
   -1.0783    0.0656   -0.8198 C   0  0  0  1  0  0  0  0  0  0  0  0
   -1.8303    0.8111   -0.9736 H   0  0  0  1  0  0  0  0  0  0  0  0
   -1.3911   -1.0809   -1.5760 O   0  0  0  1  0  0  0  0  0  0  0  0
   -1.7618   -0.8162   -2.4210 H   0  0  0  1  0  0  0  0  0  0  0  0
  1  2  1  0  0  0  0
  1  3  1  0  0  0  0
  3  4  1  0  0  0  0
  3  5  1  0  0  0  0
  3  6  1  0  0  0  0
  6  7  1  0  0  0  0
  6  8  1  0  0  0  0
  6  9  1  0  0  0  0
  8 17  1  0  0  0  0
  9 10  1  0  0  0  0
  9 11  1  0  0  0  0
  9 13  1  0  0  0  0
 11 12  1  0  0  0  0
 13 14  1  0  0  0  0
 13 15  1  0  0  0  0
 13 17  1  0  0  0  0
 15 16  1  0  0  0  0
 17 18  1  0  0  0  0
 17 19  1  0  0  0  0
 19 20  1  0  0  0  0
M  END
> <ConfClashScore>
0 

> <ConfOneFourInteractionScore>
-0.977576 

> <ConfScore>
0.257601 

> <ConfScorePBest>
0.0245046 

> <ConfTolerance>
0.25 

$$$$
RIB.****
  PyMOL2.4          3D                             0

 20 20  0  0  0  0  0  0  0  0999 V2000
    1.5420   -0.6318    2.7519 O   0  0  0  1  0  0  0  0  0  0  0  0
    1.7764   -1.3769    2.1939 H   0  0  0  1  0  0  0  0  0  0  0  0
    0.3374   -0.0444    2.2779 C   0  0  0  1  0  0  0  0  0  0  0  0
    0.3968    1.0192    2.3784 H   0  0  0  1  0  0  0  0  0  0  0  0
   -0.4874   -0.4119    2.8520 H   0  0  0  1  0  0  0  0  0  0  0  0
    0.1355   -0.4008    0.8240 C   0  0  0  1  0  0  0  0  0  0  0  0
    0.2375   -1.4585    0.6981 H   0  0  0  1  0  0  0  0  0  0  0  0
   -1.1540    0.0378    0.3727 O   0  0  0  1  0  0  0  0  0  0  0  0
    1.1537    0.3528   -0.0664 C   0  0  0  1  0  0  0  0  0  0  0  0
    1.3335    1.3439    0.2948 H   0  0  0  1  0  0  0  0  0  0  0  0
    2.3922   -0.3527   -0.1594 O   0  0  0  1  0  0  0  0  0  0  0  0
    3.1160    0.2759   -0.2098 H   0  0  0  1  0  0  0  0  0  0  0  0
    0.4026    0.3688   -1.4269 C   0  0  0  1  0  0  0  0  0  0  0  0
    0.6975    1.2068   -2.0233 H   0  0  0  1  0  0  0  0  0  0  0  0
    0.6270   -0.8383   -2.1568 O   0  0  0  1  0  0  0  0  0  0  0  0
   -0.0409   -1.4855   -1.9188 H   0  0  0  1  0  0  0  0  0  0  0  0
   -1.0703    0.4886   -0.9824 C   0  0  0  1  0  0  0  0  0  0  0  0
   -1.3886    1.5081   -1.0474 H   0  0  0  1  0  0  0  0  0  0  0  0
   -1.8715   -0.2976   -1.7906 O   0  0  0  1  0  0  0  0  0  0  0  0
   -2.0416    0.1611   -2.6167 H   0  0  0  1  0  0  0  0  0  0  0  0
  1  2  1  0  0  0  0
  1  3  1  0  0  0  0
  3  4  1  0  0  0  0
  3  5  1  0  0  0  0
  3  6  1  0  0  0  0
  6  7  1  0  0  0  0
  6  8  1  0  0  0  0
  6  9  1  0  0  0  0
  8 17  1  0  0  0  0
  9 10  1  0  0  0  0
  9 11  1  0  0  0  0
  9 13  1  0  0  0  0
 11 12  1  0  0  0  0
 13 14  1  0  0  0  0
 13 15  1  0  0  0  0
 13 17  1  0  0  0  0
 15 16  1  0  0  0  0
 17 18  1  0  0  0  0
 17 19  1  0  0  0  0
 19 20  1  0  0  0  0
M  END
> <ConfClashScore>
0 

> <ConfOneFourInteractionScore>
-0.977576 

> <ConfScore>
0.265197 

> <ConfScorePBest>
0.0240792 

> <ConfTolerance>
0.25 

$$$$
RIB.****
  PyMOL2.4          3D                             0

 20 20  0  0  0  0  0  0  0  0999 V2000
    0.5014    1.2834    2.5532 O   0  0  0  1  0  0  0  0  0  0  0  0
    0.0863    1.8359    1.8868 H   0  0  0  1  0  0  0  0  0  0  0  0
    0.2840   -0.0587    2.2461 C   0  0  0  1  0  0  0  0  0  0  0  0
   -0.5944   -0.3721    2.7706 H   0  0  0  1  0  0  0  0  0  0  0  0
    1.1283   -0.6122    2.6008 H   0  0  0  1  0  0  0  0  0  0  0  0
    0.0922   -0.4039    0.7882 C   0  0  0  1  0  0  0  0  0  0  0  0
    0.1917   -1.4610    0.6554 H   0  0  0  1  0  0  0  0  0  0  0  0
   -1.1924    0.0422    0.3302 O   0  0  0  1  0  0  0  0  0  0  0  0
    1.1197    0.3528   -0.0888 C   0  0  0  1  0  0  0  0  0  0  0  0
    1.2999    1.3406    0.2809 H   0  0  0  1  0  0  0  0  0  0  0  0
    2.3565   -0.3562   -0.1774 O   0  0  0  1  0  0  0  0  0  0  0  0
    2.9810    0.1529   -0.6993 H   0  0  0  1  0  0  0  0  0  0  0  0
    0.3792    0.3811   -1.4549 C   0  0  0  1  0  0  0  0  0  0  0  0
    0.6814    1.2225   -2.0429 H   0  0  0  1  0  0  0  0  0  0  0  0
    0.6046   -0.8183   -2.1899 O   0  0  0  1  0  0  0  0  0  0  0  0
    1.2786   -1.3417   -1.7502 H   0  0  0  1  0  0  0  0  0  0  0  0
   -1.0967    0.5026   -1.0209 C   0  0  0  1  0  0  0  0  0  0  0  0
   -1.4112    1.5236   -1.0809 H   0  0  0  1  0  0  0  0  0  0  0  0
   -1.9066   -0.2871   -1.8537 O   0  0  0  1  0  0  0  0  0  0  0  0
   -2.7957    0.0746   -1.8727 H   0  0  0  1  0  0  0  0  0  0  0  0
  1  2  1  0  0  0  0
  1  3  1  0  0  0  0
  3  4  1  0  0  0  0
  3  5  1  0  0  0  0
  3  6  1  0  0  0  0
  6  7  1  0  0  0  0
  6  8  1  0  0  0  0
  6  9  1  0  0  0  0
  8 17  1  0  0  0  0
  9 10  1  0  0  0  0
  9 11  1  0  0  0  0
  9 13  1  0  0  0  0
 11 12  1  0  0  0  0
 13 14  1  0  0  0  0
 13 15  1  0  0  0  0
 13 17  1  0  0  0  0
 15 16  1  0  0  0  0
 17 18  1  0  0  0  0
 17 19  1  0  0  0  0
 19 20  1  0  0  0  0
M  END
> <ConfClashScore>
0 

> <ConfOneFourInteractionScore>
-0.9965 

> <ConfScore>
0.269614 

> <ConfScorePBest>
0.0236537 

> <ConfTolerance>
0.25 

$$$$
RIB.****
  PyMOL2.4          3D                             0

 20 20  0  0  0  0  0  0  0  0999 V2000
    0.9108    1.6308    2.6212 O   0  0  0  1  0  0  0  0  0  0  0  0
    1.4083    2.3341    2.1977 H   0  0  0  1  0  0  0  0  0  0  0  0
   -0.1429    1.2121    1.7638 C   0  0  0  1  0  0  0  0  0  0  0  0
   -0.3203    1.9785    1.0385 H   0  0  0  1  0  0  0  0  0  0  0  0
   -1.0253    1.0648    2.3509 H   0  0  0  1  0  0  0  0  0  0  0  0
    0.1788   -0.0757    1.0401 C   0  0  0  1  0  0  0  0  0  0  0  0
    0.5331   -0.8011    1.7423 H   0  0  0  1  0  0  0  0  0  0  0  0
   -0.9786   -0.5676    0.3472 O   0  0  0  1  0  0  0  0  0  0  0  0
    1.1958    0.1621   -0.0262 C   0  0  0  1  0  0  0  0  0  0  0  0
    1.8349    0.9794    0.2353 H   0  0  0  1  0  0  0  0  0  0  0  0
    1.9842   -1.0090   -0.2432 O   0  0  0  1  0  0  0  0  0  0  0  0
    2.8303   -0.7600   -0.6223 H   0  0  0  1  0  0  0  0  0  0  0  0
    0.3810    0.4924   -1.2528 C   0  0  0  1  0  0  0  0  0  0  0  0
    0.4597    1.5334   -1.4875 H   0  0  0  1  0  0  0  0  0  0  0  0
    0.8186   -0.2826   -2.3699 O   0  0  0  1  0  0  0  0  0  0  0  0
    0.0952   -0.3838   -2.9928 H   0  0  0  1  0  0  0  0  0  0  0  0
   -1.0323    0.1392   -0.8864 C   0  0  0  1  0  0  0  0  0  0  0  0
   -1.6160    1.0289   -0.7747 H   0  0  0  1  0  0  0  0  0  0  0  0
   -1.6025   -0.6755   -1.8865 O   0  0  0  1  0  0  0  0  0  0  0  0
   -2.0731   -0.1261   -2.5176 H   0  0  0  1  0  0  0  0  0  0  0  0
  1  2  1  0  0  0  0
  1  3  1  0  0  0  0
  3  4  1  0  0  0  0
  3  5  1  0  0  0  0
  3  6  1  0  0  0  0
  6  7  1  0  0  0  0
  6  8  1  0  0  0  0
  6  9  1  0  0  0  0
  8 17  1  0  0  0  0
  9 10  1  0  0  0  0
  9 11  1  0  0  0  0
  9 13  1  0  0  0  0
 11 12  1  0  0  0  0
 13 14  1  0  0  0  0
 13 15  1  0  0  0  0
 13 17  1  0  0  0  0
 15 16  1  0  0  0  0
 17 18  1  0  0  0  0
 17 19  1  0  0  0  0
 19 20  1  0  0  0  0
M  END
> <ConfClashScore>
0 

> <ConfOneFourInteractionScore>
-0.977576 

> <ConfScore>
0.278252 

> <ConfScorePBest>
0.0232283 

> <ConfTolerance>
0.25 

$$$$
RIB.****
  PyMOL2.4          3D                             0

 20 20  0  0  0  0  0  0  0  0999 V2000
   -0.7819    1.6104    2.5425 O   0  0  0  1  0  0  0  0  0  0  0  0
   -1.4939    2.1797    2.2415 H   0  0  0  1  0  0  0  0  0  0  0  0
    0.1717    1.4639    1.5122 C   0  0  0  1  0  0  0  0  0  0  0  0
    1.1328    1.7172    1.9086 H   0  0  0  1  0  0  0  0  0  0  0  0
   -0.0803    2.1435    0.7251 H   0  0  0  1  0  0  0  0  0  0  0  0
    0.2551    0.0744    0.9262 C   0  0  0  1  0  0  0  0  0  0  0  0
    0.6075   -0.6072    1.6720 H   0  0  0  1  0  0  0  0  0  0  0  0
   -0.9177   -0.3144    0.4267 O   0  0  0  1  0  0  0  0  0  0  0  0
    1.1241    0.0465   -0.2955 C   0  0  0  1  0  0  0  0  0  0  0  0
    2.0317    0.5916   -0.1403 H   0  0  0  1  0  0  0  0  0  0  0  0
    1.4329   -1.2931   -0.6832 O   0  0  0  1  0  0  0  0  0  0  0  0
    1.6003   -1.8227    0.0998 H   0  0  0  1  0  0  0  0  0  0  0  0
    0.2334    0.7330   -1.3295 C   0  0  0  1  0  0  0  0  0  0  0  0
    0.3025    1.7993   -1.2733 H   0  0  0  1  0  0  0  0  0  0  0  0
    0.5302    0.3052   -2.6603 O   0  0  0  1  0  0  0  0  0  0  0  0
    1.0953    0.9536   -3.0868 H   0  0  0  1  0  0  0  0  0  0  0  0
   -1.1349    0.2180   -0.8502 C   0  0  0  1  0  0  0  0  0  0  0  0
   -1.8396    1.0219   -0.8034 H   0  0  0  1  0  0  0  0  0  0  0  0
   -1.6164   -0.7798   -1.7223 O   0  0  0  1  0  0  0  0  0  0  0  0
   -1.0102   -1.5243   -1.7232 H   0  0  0  1  0  0  0  0  0  0  0  0
  1  2  1  0  0  0  0
  1  3  1  0  0  0  0
  3  4  1  0  0  0  0
  3  5  1  0  0  0  0
  3  6  1  0  0  0  0
  6  7  1  0  0  0  0
  6  8  1  0  0  0  0
  6  9  1  0  0  0  0
  8 17  1  0  0  0  0
  9 10  1  0  0  0  0
  9 11  1  0  0  0  0
  9 13  1  0  0  0  0
 11 12  1  0  0  0  0
 13 14  1  0  0  0  0
 13 15  1  0  0  0  0
 13 17  1  0  0  0  0
 15 16  1  0  0  0  0
 17 18  1  0  0  0  0
 17 19  1  0  0  0  0
 19 20  1  0  0  0  0
M  END
> <ConfClashScore>
0 

> <ConfOneFourInteractionScore>
-0.970024 

> <ConfScore>
0.278588 

> <ConfScorePBest>
0.0228028 

> <ConfTolerance>
0.25 

$$$$
RIB.****
  PyMOL2.4          3D                             0

 20 20  0  0  0  0  0  0  0  0999 V2000
    1.7980   -0.1946    2.6510 O   0  0  0  1  0  0  0  0  0  0  0  0
    2.5161    0.3885    2.3944 H   0  0  0  1  0  0  0  0  0  0  0  0
    0.5582    0.3833    2.2684 C   0  0  0  1  0  0  0  0  0  0  0  0
    0.6465    1.4492    2.2360 H   0  0  0  1  0  0  0  0  0  0  0  0
   -0.2039    0.1092    2.9677 H   0  0  0  1  0  0  0  0  0  0  0  0
    0.2144   -0.1475    0.8968 C   0  0  0  1  0  0  0  0  0  0  0  0
    0.2471   -1.2169    0.9092 H   0  0  0  1  0  0  0  0  0  0  0  0
   -1.0708    0.2997    0.5055 O   0  0  0  1  0  0  0  0  0  0  0  0
    1.1718    0.3897   -0.1230 C   0  0  0  1  0  0  0  0  0  0  0  0
    1.5698    1.3323    0.1899 H   0  0  0  1  0  0  0  0  0  0  0  0
    2.2422   -0.5294   -0.3461 O   0  0  0  1  0  0  0  0  0  0  0  0
    2.2909   -1.1485    0.3859 H   0  0  0  1  0  0  0  0  0  0  0  0
    0.3415    0.5479   -1.3590 C   0  0  0  1  0  0  0  0  0  0  0  0
    0.4786    1.5226   -1.7786 H   0  0  0  1  0  0  0  0  0  0  0  0
    0.6945   -0.4417   -2.3266 O   0  0  0  1  0  0  0  0  0  0  0  0
    0.3621   -0.1802   -3.1883 H   0  0  0  1  0  0  0  0  0  0  0  0
   -1.0748    0.3643   -0.9180 C   0  0  0  1  0  0  0  0  0  0  0  0
   -1.6701    1.1911   -1.2451 H   0  0  0  1  0  0  0  0  0  0  0  0
   -1.5940   -0.8281   -1.4520 O   0  0  0  1  0  0  0  0  0  0  0  0
   -1.8954   -0.6725   -2.3501 H   0  0  0  1  0  0  0  0  0  0  0  0
  1  2  1  0  0  0  0
  1  3  1  0  0  0  0
  3  4  1  0  0  0  0
  3  5  1  0  0  0  0
  3  6  1  0  0  0  0
  6  7  1  0  0  0  0
  6  8  1  0  0  0  0
  6  9  1  0  0  0  0
  8 17  1  0  0  0  0
  9 10  1  0  0  0  0
  9 11  1  0  0  0  0
  9 13  1  0  0  0  0
 11 12  1  0  0  0  0
 13 14  1  0  0  0  0
 13 15  1  0  0  0  0
 13 17  1  0  0  0  0
 15 16  1  0  0  0  0
 17 18  1  0  0  0  0
 17 19  1  0  0  0  0
 19 20  1  0  0  0  0
M  END
> <ConfClashScore>
0 

> <ConfOneFourInteractionScore>
-0.977576 

> <ConfScore>
0.282066 

> <ConfScorePBest>
0.0223773 

> <ConfTolerance>
0.25 

$$$$
RIB.****
  PyMOL2.4          3D                             0

 20 20  0  0  0  0  0  0  0  0999 V2000
    1.0708    0.7736    2.7292 O   0  0  0  1  0  0  0  0  0  0  0  0
    1.3577    1.6877    2.7909 H   0  0  0  1  0  0  0  0  0  0  0  0
   -0.1311    0.7035    1.9735 C   0  0  0  1  0  0  0  0  0  0  0  0
   -0.3716    1.6688    1.5793 H   0  0  0  1  0  0  0  0  0  0  0  0
   -0.9331    0.3611    2.5936 H   0  0  0  1  0  0  0  0  0  0  0  0
    0.0984   -0.2665    0.8500 C   0  0  0  1  0  0  0  0  0  0  0  0
    0.4251   -1.2041    1.2488 H   0  0  0  1  0  0  0  0  0  0  0  0
   -1.1045   -0.4454    0.1072 O   0  0  0  1  0  0  0  0  0  0  0  0
    1.1259    0.2748   -0.0909 C   0  0  0  1  0  0  0  0  0  0  0  0
    1.5645    1.1658    0.3075 H   0  0  0  1  0  0  0  0  0  0  0  0
    2.1473   -0.6957   -0.3255 O   0  0  0  1  0  0  0  0  0  0  0  0
    2.6487   -0.4508   -1.1067 H   0  0  0  1  0  0  0  0  0  0  0  0
    0.3907    0.5767   -1.3599 C   0  0  0  1  0  0  0  0  0  0  0  0
    0.6116    1.5669   -1.7000 H   0  0  0  1  0  0  0  0  0  0  0  0
    0.7314   -0.3645   -2.3788 O   0  0  0  1  0  0  0  0  0  0  0  0
    1.1115   -1.1488   -1.9764 H   0  0  0  1  0  0  0  0  0  0  0  0
   -1.0549    0.4539   -0.9853 C   0  0  0  1  0  0  0  0  0  0  0  0
   -1.4460    1.4077   -0.6986 H   0  0  0  1  0  0  0  0  0  0  0  0
   -1.7932   -0.0490   -2.0608 O   0  0  0  1  0  0  0  0  0  0  0  0
   -2.4594   -0.6586   -1.7350 H   0  0  0  1  0  0  0  0  0  0  0  0
  1  2  1  0  0  0  0
  1  3  1  0  0  0  0
  3  4  1  0  0  0  0
  3  5  1  0  0  0  0
  3  6  1  0  0  0  0
  6  7  1  0  0  0  0
  6  8  1  0  0  0  0
  6  9  1  0  0  0  0
  8 17  1  0  0  0  0
  9 10  1  0  0  0  0
  9 11  1  0  0  0  0
  9 13  1  0  0  0  0
 11 12  1  0  0  0  0
 13 14  1  0  0  0  0
 13 15  1  0  0  0  0
 13 17  1  0  0  0  0
 15 16  1  0  0  0  0
 17 18  1  0  0  0  0
 17 19  1  0  0  0  0
 19 20  1  0  0  0  0
M  END
> <ConfClashScore>
0 

> <ConfOneFourInteractionScore>
-0.977576 

> <ConfScore>
0.29954 

> <ConfScorePBest>
0.0219519 

> <ConfTolerance>
0.25 

$$$$
RIB.****
  PyMOL2.4          3D                             0

 20 20  0  0  0  0  0  0  0  0999 V2000
    0.0557    0.8274    2.6755 O   0  0  0  1  0  0  0  0  0  0  0  0
   -0.8042    1.0474    2.3096 H   0  0  0  1  0  0  0  0  0  0  0  0
    0.4820   -0.4283    2.1636 C   0  0  0  1  0  0  0  0  0  0  0  0
   -0.0831   -1.2026    2.6391 H   0  0  0  1  0  0  0  0  0  0  0  0
    1.5206   -0.5555    2.3872 H   0  0  0  1  0  0  0  0  0  0  0  0
    0.2919   -0.5365    0.6757 C   0  0  0  1  0  0  0  0  0  0  0  0
    0.5597   -1.5206    0.3520 H   0  0  0  1  0  0  0  0  0  0  0  0
   -1.0087   -0.1553    0.2584 O   0  0  0  1  0  0  0  0  0  0  0  0
    1.0584    0.6126   -0.1329 C   0  0  0  1  0  0  0  0  0  0  0  0
    0.8189    1.5997    0.2037 H   0  0  0  1  0  0  0  0  0  0  0  0
    2.4767    0.4447   -0.1471 O   0  0  0  1  0  0  0  0  0  0  0  0
    2.7250   -0.2375    0.4810 H   0  0  0  1  0  0  0  0  0  0  0  0
    0.3813    0.2408   -1.4799 C   0  0  0  1  0  0  0  0  0  0  0  0
    0.6735    0.8744   -2.2911 H   0  0  0  1  0  0  0  0  0  0  0  0
    0.5693   -1.1257   -1.8506 O   0  0  0  1  0  0  0  0  0  0  0  0
   -0.2777   -1.5775   -1.8496 H   0  0  0  1  0  0  0  0  0  0  0  0
   -0.9649    0.5266   -0.9740 C   0  0  0  1  0  0  0  0  0  0  0  0
   -1.1047    1.5781   -0.8336 H   0  0  0  1  0  0  0  0  0  0  0  0
   -1.9291    0.0445   -1.8387 O   0  0  0  1  0  0  0  0  0  0  0  0
   -1.8855    0.5261   -2.6679 H   0  0  0  1  0  0  0  0  0  0  0  0
  1  2  1  0  0  0  0
  1  3  1  0  0  0  0
  3  4  1  0  0  0  0
  3  5  1  0  0  0  0
  3  6  1  0  0  0  0
  6  7  1  0  0  0  0
  6  8  1  0  0  0  0
  6  9  1  0  0  0  0
  8 17  1  0  0  0  0
  9 10  1  0  0  0  0
  9 11  1  0  0  0  0
  9 13  1  0  0  0  0
 11 12  1  0  0  0  0
 13 14  1  0  0  0  0
 13 15  1  0  0  0  0
 13 17  1  0  0  0  0
 15 16  1  0  0  0  0
 17 18  1  0  0  0  0
 17 19  1  0  0  0  0
 19 20  1  0  0  0  0
M  END
> <ConfClashScore>
0 

> <ConfOneFourInteractionScore>
-0.998705 

> <ConfScore>
0.302428 

> <ConfScorePBest>
0.0215264 

> <ConfTolerance>
0.376161 

$$$$
RIB.****
  PyMOL2.4          3D                             0

 20 20  0  0  0  0  0  0  0  0999 V2000
    1.8439    0.8604    2.3428 O   0  0  0  1  0  0  0  0  0  0  0  0
    2.0945    0.1687    2.9595 H   0  0  0  1  0  0  0  0  0  0  0  0
    0.4717    0.7421    2.0341 C   0  0  0  1  0  0  0  0  0  0  0  0
    0.0782    1.7179    1.8395 H   0  0  0  1  0  0  0  0  0  0  0  0
   -0.0336    0.3142    2.8747 H   0  0  0  1  0  0  0  0  0  0  0  0
    0.2266   -0.1260    0.8307 C   0  0  0  1  0  0  0  0  0  0  0  0
    0.4559   -1.1430    1.0712 H   0  0  0  1  0  0  0  0  0  0  0  0
   -1.1324   -0.0204    0.4294 O   0  0  0  1  0  0  0  0  0  0  0  0
    1.0390    0.3079   -0.2490 C   0  0  0  1  0  0  0  0  0  0  0  0
    1.6286    1.1475    0.0550 H   0  0  0  1  0  0  0  0  0  0  0  0
    1.8996   -0.7535   -0.6648 O   0  0  0  1  0  0  0  0  0  0  0  0
    1.7326   -1.5308   -0.1268 H   0  0  0  1  0  0  0  0  0  0  0  0
    0.1839    0.6821   -1.3192 C   0  0  0  1  0  0  0  0  0  0  0  0
    0.3356    1.7131   -1.5619 H   0  0  0  1  0  0  0  0  0  0  0  0
    0.4613   -0.1233   -2.4657 O   0  0  0  1  0  0  0  0  0  0  0  0
    1.4090   -0.2556   -2.5427 H   0  0  0  1  0  0  0  0  0  0  0  0
   -1.1588    0.4778   -0.8996 C   0  0  0  1  0  0  0  0  0  0  0  0
   -1.6933    1.4043   -0.9292 H   0  0  0  1  0  0  0  0  0  0  0  0
   -1.7816   -0.4461   -1.7390 O   0  0  0  1  0  0  0  0  0  0  0  0
   -1.2116   -1.2101   -1.8534 H   0  0  0  1  0  0  0  0  0  0  0  0
  1  2  1  0  0  0  0
  1  3  1  0  0  0  0
  3  4  1  0  0  0  0
  3  5  1  0  0  0  0
  3  6  1  0  0  0  0
  6  7  1  0  0  0  0
  6  8  1  0  0  0  0
  6  9  1  0  0  0  0
  8 17  1  0  0  0  0
  9 10  1  0  0  0  0
  9 11  1  0  0  0  0
  9 13  1  0  0  0  0
 11 12  1  0  0  0  0
 13 14  1  0  0  0  0
 13 15  1  0  0  0  0
 13 17  1  0  0  0  0
 15 16  1  0  0  0  0
 17 18  1  0  0  0  0
 17 19  1  0  0  0  0
 19 20  1  0  0  0  0
M  END
> <ConfClashScore>
0 

> <ConfOneFourInteractionScore>
-0.970024 

> <ConfScore>
0.302486 

> <ConfScorePBest>
0.0211009 

> <ConfTolerance>
0.25 

$$$$
RIB.****
  PyMOL2.4          3D                             0

 20 20  0  0  0  0  0  0  0  0999 V2000
    1.7286    0.0231    2.7857 O   0  0  0  1  0  0  0  0  0  0  0  0
    1.6736   -0.9158    2.5934 H   0  0  0  1  0  0  0  0  0  0  0  0
    0.5941    0.6859    2.2430 C   0  0  0  1  0  0  0  0  0  0  0  0
    0.8408    1.7078    2.0439 H   0  0  0  1  0  0  0  0  0  0  0  0
   -0.2121    0.6433    2.9452 H   0  0  0  1  0  0  0  0  0  0  0  0
    0.1758    0.0086    0.9543 C   0  0  0  1  0  0  0  0  0  0  0  0
    0.0945   -1.0461    1.1152 H   0  0  0  1  0  0  0  0  0  0  0  0
   -1.0790    0.5433    0.4914 O   0  0  0  1  0  0  0  0  0  0  0  0
    1.2084    0.3076   -0.1764 C   0  0  0  1  0  0  0  0  0  0  0  0
    1.8559    1.1142    0.0977 H   0  0  0  1  0  0  0  0  0  0  0  0
    1.9896   -0.8498   -0.4771 O   0  0  0  1  0  0  0  0  0  0  0  0
    1.5265   -1.6356   -0.1779 H   0  0  0  1  0  0  0  0  0  0  0  0
    0.2859    0.7086   -1.4054 C   0  0  0  1  0  0  0  0  0  0  0  0
    0.3243    1.7617   -1.5907 H   0  0  0  1  0  0  0  0  0  0  0  0
    0.6648    0.0019   -2.5883 O   0  0  0  1  0  0  0  0  0  0  0  0
    1.4437    0.4123   -2.9710 H   0  0  0  1  0  0  0  0  0  0  0  0
   -1.1186    0.2766   -0.9214 C   0  0  0  1  0  0  0  0  0  0  0  0
   -1.8827    0.8537   -1.3989 H   0  0  0  1  0  0  0  0  0  0  0  0
   -1.3381   -1.0885   -1.1694 O   0  0  0  1  0  0  0  0  0  0  0  0
   -1.8791   -1.1883   -1.9562 H   0  0  0  1  0  0  0  0  0  0  0  0
  1  2  1  0  0  0  0
  1  3  1  0  0  0  0
  3  4  1  0  0  0  0
  3  5  1  0  0  0  0
  3  6  1  0  0  0  0
  6  7  1  0  0  0  0
  6  8  1  0  0  0  0
  6  9  1  0  0  0  0
  8 17  1  0  0  0  0
  9 10  1  0  0  0  0
  9 11  1  0  0  0  0
  9 13  1  0  0  0  0
 11 12  1  0  0  0  0
 13 14  1  0  0  0  0
 13 15  1  0  0  0  0
 13 17  1  0  0  0  0
 15 16  1  0  0  0  0
 17 18  1  0  0  0  0
 17 19  1  0  0  0  0
 19 20  1  0  0  0  0
M  END
> <ConfClashScore>
0 

> <ConfOneFourInteractionScore>
-0.977576 

> <ConfScore>
0.307828 

> <ConfScorePBest>
0.0206755 

> <ConfTolerance>
0.25 

$$$$
RIB.****
  PyMOL2.4          3D                             0

 20 20  0  0  0  0  0  0  0  0999 V2000
    1.3009    2.4260    1.5759 O   0  0  0  1  0  0  0  0  0  0  0  0
    1.8883    2.3428    0.8212 H   0  0  0  1  0  0  0  0  0  0  0  0
    0.0756    1.7607    1.2990 C   0  0  0  1  0  0  0  0  0  0  0  0
   -0.3441    2.1721    0.4048 H   0  0  0  1  0  0  0  0  0  0  0  0
   -0.5957    1.9233    2.1163 H   0  0  0  1  0  0  0  0  0  0  0  0
    0.2571    0.2717    1.1093 C   0  0  0  1  0  0  0  0  0  0  0  0
    0.6211   -0.1623    2.0170 H   0  0  0  1  0  0  0  0  0  0  0  0
   -0.9099   -0.3911    0.5775 O   0  0  0  1  0  0  0  0  0  0  0  0
    1.0757   -0.0880   -0.1036 C   0  0  0  1  0  0  0  0  0  0  0  0
    2.0773    0.2813   -0.0309 H   0  0  0  1  0  0  0  0  0  0  0  0
    1.1025   -1.4994   -0.3266 O   0  0  0  1  0  0  0  0  0  0  0  0
    1.4197   -1.6774   -1.2151 H   0  0  0  1  0  0  0  0  0  0  0  0
    0.2639    0.6556   -1.2028 C   0  0  0  1  0  0  0  0  0  0  0  0
    0.3088    1.7197   -1.1006 H   0  0  0  1  0  0  0  0  0  0  0  0
    0.6595    0.2865   -2.5247 O   0  0  0  1  0  0  0  0  0  0  0  0
    0.8711    1.0761   -3.0281 H   0  0  0  1  0  0  0  0  0  0  0  0
   -1.0758    0.0921   -0.8198 C   0  0  0  1  0  0  0  0  0  0  0  0
   -1.8293    0.8502   -0.8676 H   0  0  0  1  0  0  0  0  0  0  0  0
   -1.4231   -0.9652   -1.6661 O   0  0  0  1  0  0  0  0  0  0  0  0
   -0.6281   -1.3444   -2.0479 H   0  0  0  1  0  0  0  0  0  0  0  0
  1  2  1  0  0  0  0
  1  3  1  0  0  0  0
  3  4  1  0  0  0  0
  3  5  1  0  0  0  0
  3  6  1  0  0  0  0
  6  7  1  0  0  0  0
  6  8  1  0  0  0  0
  6  9  1  0  0  0  0
  8 17  1  0  0  0  0
  9 10  1  0  0  0  0
  9 11  1  0  0  0  0
  9 13  1  0  0  0  0
 11 12  1  0  0  0  0
 13 14  1  0  0  0  0
 13 15  1  0  0  0  0
 13 17  1  0  0  0  0
 15 16  1  0  0  0  0
 17 18  1  0  0  0  0
 17 19  1  0  0  0  0
 19 20  1  0  0  0  0
M  END
> <ConfClashScore>
0 

> <ConfOneFourInteractionScore>
-0.970024 

> <ConfScore>
0.333318 

> <ConfScorePBest>
0.02025 

> <ConfTolerance>
0.306953 

$$$$
RIB.****
  PyMOL2.4          3D                             0

 20 20  0  0  0  0  0  0  0  0999 V2000
    0.2806    1.5900    2.6761 O   0  0  0  1  0  0  0  0  0  0  0  0
    0.2879    2.5477    2.6102 H   0  0  0  1  0  0  0  0  0  0  0  0
   -0.4869    1.0468    1.6100 C   0  0  0  1  0  0  0  0  0  0  0  0
   -0.6764    1.8094    0.8838 H   0  0  0  1  0  0  0  0  0  0  0  0
   -1.4160    0.6788    1.9923 H   0  0  0  1  0  0  0  0  0  0  0  0
    0.2740   -0.0870    0.9612 C   0  0  0  1  0  0  0  0  0  0  0  0
    0.7708   -0.6613    1.7151 H   0  0  0  1  0  0  0  0  0  0  0  0
   -0.5541   -0.8888    0.1240 O   0  0  0  1  0  0  0  0  0  0  0  0
    1.1895    0.3786   -0.0799 C   0  0  0  1  0  0  0  0  0  0  0  0
    1.6014    1.3299    0.1854 H   0  0  0  1  0  0  0  0  0  0  0  0
    2.2469   -0.5629   -0.2685 O   0  0  0  1  0  0  0  0  0  0  0  0
    1.9124   -1.3306   -0.7379 H   0  0  0  1  0  0  0  0  0  0  0  0
    0.4371    0.4865   -1.2229 C   0  0  0  1  0  0  0  0  0  0  0  0
    0.4413    1.4961   -1.5770 H   0  0  0  1  0  0  0  0  0  0  0  0
    0.9503   -0.3771   -2.2383 O   0  0  0  1  0  0  0  0  0  0  0  0
    0.2307   -0.6744   -2.7998 H   0  0  0  1  0  0  0  0  0  0  0  0
   -0.9187    0.0839   -0.8508 C   0  0  0  1  0  0  0  0  0  0  0  0
   -1.4837    0.8902   -0.4319 H   0  0  0  1  0  0  0  0  0  0  0  0
   -1.6294   -0.4772   -1.9316 O   0  0  0  1  0  0  0  0  0  0  0  0
   -2.1158    0.2132   -2.3882 H   0  0  0  1  0  0  0  0  0  0  0  0
  1  2  1  0  0  0  0
  1  3  1  0  0  0  0
  3  4  1  0  0  0  0
  3  5  1  0  0  0  0
  3  6  1  0  0  0  0
  6  7  1  0  0  0  0
  6  8  1  0  0  0  0
  6  9  1  0  0  0  0
  8 17  1  0  0  0  0
  9 10  1  0  0  0  0
  9 11  1  0  0  0  0
  9 13  1  0  0  0  0
 11 12  1  0  0  0  0
 13 14  1  0  0  0  0
 13 15  1  0  0  0  0
 13 17  1  0  0  0  0
 15 16  1  0  0  0  0
 17 18  1  0  0  0  0
 17 19  1  0  0  0  0
 19 20  1  0  0  0  0
M  END
> <ConfClashScore>
0 

> <ConfOneFourInteractionScore>
-0.95019 

> <ConfScore>
0.37691 

> <ConfScorePBest>
0.0198245 

> <ConfTolerance>
0.366268 

$$$$
RIB.****
  PyMOL2.4          3D                             0

 20 20  0  0  0  0  0  0  0  0999 V2000
   -0.0876   -1.2160    2.9540 O   0  0  0  1  0  0  0  0  0  0  0  0
   -0.8401   -0.8151    3.3951 H   0  0  0  1  0  0  0  0  0  0  0  0
    0.5996   -0.2293    2.1979 C   0  0  0  1  0  0  0  0  0  0  0  0
    1.6540   -0.3970    2.2693 H   0  0  0  1  0  0  0  0  0  0  0  0
    0.3654    0.7410    2.5831 H   0  0  0  1  0  0  0  0  0  0  0  0
    0.1753   -0.3108    0.7505 C   0  0  0  1  0  0  0  0  0  0  0  0
    0.1890   -1.3319    0.4312 H   0  0  0  1  0  0  0  0  0  0  0  0
   -1.1474    0.2915    0.5496 O   0  0  0  1  0  0  0  0  0  0  0  0
    1.0538    0.5479   -0.1259 C   0  0  0  1  0  0  0  0  0  0  0  0
    1.1165    1.5568    0.2251 H   0  0  0  1  0  0  0  0  0  0  0  0
    2.3601    0.0140   -0.2680 O   0  0  0  1  0  0  0  0  0  0  0  0
    2.3028   -0.9189   -0.4873 H   0  0  0  1  0  0  0  0  0  0  0  0
    0.2464    0.4315   -1.3929 C   0  0  0  1  0  0  0  0  0  0  0  0
    0.5059    1.1939   -2.0974 H   0  0  0  1  0  0  0  0  0  0  0  0
    0.4023   -0.8519   -2.0003 O   0  0  0  1  0  0  0  0  0  0  0  0
    1.3158   -1.1357   -1.9199 H   0  0  0  1  0  0  0  0  0  0  0  0
   -1.1360    0.6234   -0.8575 C   0  0  0  1  0  0  0  0  0  0  0  0
   -1.4323    1.6433   -0.9876 H   0  0  0  1  0  0  0  0  0  0  0  0
   -2.0279   -0.2154   -1.5460 O   0  0  0  1  0  0  0  0  0  0  0  0
   -1.6580   -0.4425   -2.4023 H   0  0  0  1  0  0  0  0  0  0  0  0
  1  2  1  0  0  0  0
  1  3  1  0  0  0  0
  3  4  1  0  0  0  0
  3  5  1  0  0  0  0
  3  6  1  0  0  0  0
  6  7  1  0  0  0  0
  6  8  1  0  0  0  0
  6  9  1  0  0  0  0
  8 17  1  0  0  0  0
  9 10  1  0  0  0  0
  9 11  1  0  0  0  0
  9 13  1  0  0  0  0
 11 12  1  0  0  0  0
 13 14  1  0  0  0  0
 13 15  1  0  0  0  0
 13 17  1  0  0  0  0
 15 16  1  0  0  0  0
 17 18  1  0  0  0  0
 17 19  1  0  0  0  0
 19 20  1  0  0  0  0
M  END
> <ConfClashScore>
0 

> <ConfOneFourInteractionScore>
-0.970024 

> <ConfScore>
0.421425 

> <ConfScorePBest>
0.0193991 

> <ConfTolerance>
0.268178 

$$$$
RIB.****
  PyMOL2.4          3D                             0

 20 20  0  0  0  0  0  0  0  0999 V2000
    1.0649    0.6514    3.1740 O   0  0  0  1  0  0  0  0  0  0  0  0
    1.6273   -0.0611    2.8614 H   0  0  0  1  0  0  0  0  0  0  0  0
    0.3220    1.1964    2.0695 C   0  0  0  1  0  0  0  0  0  0  0  0
    0.8596    2.0045    1.6191 H   0  0  0  1  0  0  0  0  0  0  0  0
   -0.6356    1.5433    2.3975 H   0  0  0  1  0  0  0  0  0  0  0  0
    0.1642    0.0553    1.0903 C   0  0  0  1  0  0  0  0  0  0  0  0
    0.2927   -0.8753    1.6026 H   0  0  0  1  0  0  0  0  0  0  0  0
   -1.1325    0.1087    0.4559 O   0  0  0  1  0  0  0  0  0  0  0  0
    1.1848    0.1847   -0.0592 C   0  0  0  1  0  0  0  0  0  0  0  0
    2.0071    0.8071    0.2259 H   0  0  0  1  0  0  0  0  0  0  0  0
    1.6731   -1.0977   -0.4580 O   0  0  0  1  0  0  0  0  0  0  0  0
    1.4326   -1.2619   -1.3727 H   0  0  0  1  0  0  0  0  0  0  0  0
    0.3768    0.8262   -1.1662 C   0  0  0  1  0  0  0  0  0  0  0  0
    0.3470    1.8906   -1.0616 H   0  0  0  1  0  0  0  0  0  0  0  0
    0.8902    0.4914   -2.4406 O   0  0  0  1  0  0  0  0  0  0  0  0
    0.6754   -0.4222   -2.6426 H   0  0  0  1  0  0  0  0  0  0  0  0
   -0.9892    0.2095   -0.9405 C   0  0  0  1  0  0  0  0  0  0  0  0
   -1.7540    0.8359   -1.3501 H   0  0  0  1  0  0  0  0  0  0  0  0
   -1.0574   -1.0672   -1.5359 O   0  0  0  1  0  0  0  0  0  0  0  0
   -1.5668   -1.0154   -2.3479 H   0  0  0  1  0  0  0  0  0  0  0  0
  1  2  1  0  0  0  0
  1  3  1  0  0  0  0
  3  4  1  0  0  0  0
  3  5  1  0  0  0  0
  3  6  1  0  0  0  0
  6  7  1  0  0  0  0
  6  8  1  0  0  0  0
  6  9  1  0  0  0  0
  8 17  1  0  0  0  0
  9 10  1  0  0  0  0
  9 11  1  0  0  0  0
  9 13  1  0  0  0  0
 11 12  1  0  0  0  0
 13 14  1  0  0  0  0
 13 15  1  0  0  0  0
 13 17  1  0  0  0  0
 15 16  1  0  0  0  0
 17 18  1  0  0  0  0
 17 19  1  0  0  0  0
 19 20  1  0  0  0  0
M  END
> <ConfClashScore>
0 

> <ConfOneFourInteractionScore>
-0.922804 

> <ConfScore>
0.427305 

> <ConfScorePBest>
0.0189736 

> <ConfTolerance>
0.25 

$$$$
RIB.****
  PyMOL2.4          3D                             0

 20 20  0  0  0  0  0  0  0  0999 V2000
   -0.6169    2.3183    1.0542 O   0  0  0  1  0  0  0  0  0  0  0  0
   -0.4601    2.2647    0.1086 H   0  0  0  1  0  0  0  0  0  0  0  0
    0.2464    1.4152    1.7299 C   0  0  0  1  0  0  0  0  0  0  0  0
   -0.1282    1.2578    2.7198 H   0  0  0  1  0  0  0  0  0  0  0  0
    1.2233    1.8485    1.7825 H   0  0  0  1  0  0  0  0  0  0  0  0
    0.3455    0.0799    1.0312 C   0  0  0  1  0  0  0  0  0  0  0  0
    0.7163   -0.6546    1.7152 H   0  0  0  1  0  0  0  0  0  0  0  0
   -0.9522   -0.3209    0.4955 O   0  0  0  1  0  0  0  0  0  0  0  0
    1.2376    0.1772   -0.1852 C   0  0  0  1  0  0  0  0  0  0  0  0
    2.0183    0.8924   -0.0305 H   0  0  0  1  0  0  0  0  0  0  0  0
    1.8100   -1.0927   -0.5011 O   0  0  0  1  0  0  0  0  0  0  0  0
    1.2682   -1.7907   -0.1258 H   0  0  0  1  0  0  0  0  0  0  0  0
    0.2825    0.6392   -1.2938 C   0  0  0  1  0  0  0  0  0  0  0  0
    0.2343    1.7071   -1.3409 H   0  0  0  1  0  0  0  0  0  0  0  0
    0.6812    0.1234   -2.5647 O   0  0  0  1  0  0  0  0  0  0  0  0
    1.1635    0.7986   -3.0475 H   0  0  0  1  0  0  0  0  0  0  0  0
   -1.0633    0.0431   -0.8516 C   0  0  0  1  0  0  0  0  0  0  0  0
   -1.8389    0.7709   -0.9684 H   0  0  0  1  0  0  0  0  0  0  0  0
   -1.3616   -1.0888   -1.6283 O   0  0  0  1  0  0  0  0  0  0  0  0
   -1.9217   -0.8334   -2.3649 H   0  0  0  1  0  0  0  0  0  0  0  0
  1  2  1  0  0  0  0
  1  3  1  0  0  0  0
  3  4  1  0  0  0  0
  3  5  1  0  0  0  0
  3  6  1  0  0  0  0
  6  7  1  0  0  0  0
  6  8  1  0  0  0  0
  6  9  1  0  0  0  0
  8 17  1  0  0  0  0
  9 10  1  0  0  0  0
  9 11  1  0  0  0  0
  9 13  1  0  0  0  0
 11 12  1  0  0  0  0
 13 14  1  0  0  0  0
 13 15  1  0  0  0  0
 13 17  1  0  0  0  0
 15 16  1  0  0  0  0
 17 18  1  0  0  0  0
 17 19  1  0  0  0  0
 19 20  1  0  0  0  0
M  END
> <ConfClashScore>
0 

> <ConfOneFourInteractionScore>
-1 

> <ConfScore>
0.43219 

> <ConfScorePBest>
0.0185481 

> <ConfTolerance>
0.25 

$$$$
RIB.****
  PyMOL2.4          3D                             0

 20 20  0  0  0  0  0  0  0  0999 V2000
   -1.0457    0.4052    2.7829 O   0  0  0  1  0  0  0  0  0  0  0  0
   -1.5767   -0.3152    2.4355 H   0  0  0  1  0  0  0  0  0  0  0  0
    0.2483    0.3667    2.1959 C   0  0  0  1  0  0  0  0  0  0  0  0
    0.9066   -0.1653    2.8506 H   0  0  0  1  0  0  0  0  0  0  0  0
    0.6000    1.3699    2.0740 H   0  0  0  1  0  0  0  0  0  0  0  0
    0.2502   -0.3118    0.8538 C   0  0  0  1  0  0  0  0  0  0  0  0
    0.6424   -1.3022    0.9548 H   0  0  0  1  0  0  0  0  0  0  0  0
   -1.0813   -0.3660    0.3336 O   0  0  0  1  0  0  0  0  0  0  0  0
    1.1106    0.4948   -0.1415 C   0  0  0  1  0  0  0  0  0  0  0  0
    1.2090    1.5143    0.1681 H   0  0  0  1  0  0  0  0  0  0  0  0
    2.4073   -0.0846   -0.2935 O   0  0  0  1  0  0  0  0  0  0  0  0
    2.3202   -1.0264   -0.4576 H   0  0  0  1  0  0  0  0  0  0  0  0
    0.2850    0.3811   -1.4533 C   0  0  0  1  0  0  0  0  0  0  0  0
    0.4525    1.2194   -2.0968 H   0  0  0  1  0  0  0  0  0  0  0  0
    0.5813   -0.8269   -2.1567 O   0  0  0  1  0  0  0  0  0  0  0  0
    1.4997   -1.0656   -2.0109 H   0  0  0  1  0  0  0  0  0  0  0  0
   -1.1588    0.3736   -0.8936 C   0  0  0  1  0  0  0  0  0  0  0  0
   -1.4950    1.3725   -0.7092 H   0  0  0  1  0  0  0  0  0  0  0  0
   -2.0364   -0.2590   -1.7978 O   0  0  0  1  0  0  0  0  0  0  0  0
   -2.3690    0.3861   -2.4262 H   0  0  0  1  0  0  0  0  0  0  0  0
  1  2  1  0  0  0  0
  1  3  1  0  0  0  0
  3  4  1  0  0  0  0
  3  5  1  0  0  0  0
  3  6  1  0  0  0  0
  6  7  1  0  0  0  0
  6  8  1  0  0  0  0
  6  9  1  0  0  0  0
  8 17  1  0  0  0  0
  9 10  1  0  0  0  0
  9 11  1  0  0  0  0
  9 13  1  0  0  0  0
 11 12  1  0  0  0  0
 13 14  1  0  0  0  0
 13 15  1  0  0  0  0
 13 17  1  0  0  0  0
 15 16  1  0  0  0  0
 17 18  1  0  0  0  0
 17 19  1  0  0  0  0
 19 20  1  0  0  0  0
M  END
> <ConfClashScore>
0 

> <ConfOneFourInteractionScore>
-0.980166 

> <ConfScore>
0.452043 

> <ConfScorePBest>
0.0181227 

> <ConfTolerance>
0.25 

$$$$
RIB.****
  PyMOL2.4          3D                             0

 20 20  0  0  0  0  0  0  0  0999 V2000
    1.2459    2.0919    1.3039 O   0  0  0  1  0  0  0  0  0  0  0  0
    1.0759    2.9443    1.7114 H   0  0  0  1  0  0  0  0  0  0  0  0
    0.4981    1.0870    1.9760 C   0  0  0  1  0  0  0  0  0  0  0  0
   -0.4052    1.5051    2.3686 H   0  0  0  1  0  0  0  0  0  0  0  0
    1.0773    0.6739    2.7752 H   0  0  0  1  0  0  0  0  0  0  0  0
    0.1722    0.0111    0.9651 C   0  0  0  1  0  0  0  0  0  0  0  0
    0.2572   -0.9504    1.4268 H   0  0  0  1  0  0  0  0  0  0  0  0
   -1.1612    0.1993    0.4527 O   0  0  0  1  0  0  0  0  0  0  0  0
    1.1187    0.1068   -0.2279 C   0  0  0  1  0  0  0  0  0  0  0  0
    1.9441    0.7507   -0.0066 H   0  0  0  1  0  0  0  0  0  0  0  0
    1.6068   -1.1867   -0.5929 O   0  0  0  1  0  0  0  0  0  0  0  0
    2.4054   -1.3797   -0.0963 H   0  0  0  1  0  0  0  0  0  0  0  0
    0.2652    0.6891   -1.3321 C   0  0  0  1  0  0  0  0  0  0  0  0
    0.3295    1.7571   -1.3441 H   0  0  0  1  0  0  0  0  0  0  0  0
    0.6543    0.1737   -2.6061 O   0  0  0  1  0  0  0  0  0  0  0  0
    1.4767    0.5857   -2.8809 H   0  0  0  1  0  0  0  0  0  0  0  0
   -1.1461    0.2286   -0.9616 C   0  0  0  1  0  0  0  0  0  0  0  0
   -1.8760    0.9182   -1.3314 H   0  0  0  1  0  0  0  0  0  0  0  0
   -1.4026   -1.0549   -1.4868 O   0  0  0  1  0  0  0  0  0  0  0  0
   -2.2761   -1.0697   -1.8847 H   0  0  0  1  0  0  0  0  0  0  0  0
  1  2  1  0  0  0  0
  1  3  1  0  0  0  0
  3  4  1  0  0  0  0
  3  5  1  0  0  0  0
  3  6  1  0  0  0  0
  6  7  1  0  0  0  0
  6  8  1  0  0  0  0
  6  9  1  0  0  0  0
  8 17  1  0  0  0  0
  9 10  1  0  0  0  0
  9 11  1  0  0  0  0
  9 13  1  0  0  0  0
 11 12  1  0  0  0  0
 13 14  1  0  0  0  0
 13 15  1  0  0  0  0
 13 17  1  0  0  0  0
 15 16  1  0  0  0  0
 17 18  1  0  0  0  0
 17 19  1  0  0  0  0
 19 20  1  0  0  0  0
M  END
> <ConfClashScore>
0 

> <ConfOneFourInteractionScore>
-0.95967 

> <ConfScore>
0.459992 

> <ConfScorePBest>
0.0176972 

> <ConfTolerance>
0.25 

$$$$
RIB.****
  PyMOL2.4          3D                             0

 20 20  0  0  0  0  0  0  0  0999 V2000
   -0.4181    1.1687    2.9156 O   0  0  0  1  0  0  0  0  0  0  0  0
   -1.1584    0.5762    2.7653 H   0  0  0  1  0  0  0  0  0  0  0  0
    0.2843    1.3827    1.6788 C   0  0  0  1  0  0  0  0  0  0  0  0
    1.3053    1.6407    1.8680 H   0  0  0  1  0  0  0  0  0  0  0  0
   -0.1822    2.1622    1.1135 H   0  0  0  1  0  0  0  0  0  0  0  0
    0.1997    0.0681    0.9369 C   0  0  0  1  0  0  0  0  0  0  0  0
    0.3965   -0.7372    1.6135 H   0  0  0  1  0  0  0  0  0  0  0  0
   -1.0908   -0.0854    0.3461 O   0  0  0  1  0  0  0  0  0  0  0  0
    1.2052    0.0459   -0.2259 C   0  0  0  1  0  0  0  0  0  0  0  0
    2.1438    0.4991    0.0163 H   0  0  0  1  0  0  0  0  0  0  0  0
    1.4295   -1.2615   -0.7555 O   0  0  0  1  0  0  0  0  0  0  0  0
    2.0121   -1.7493   -0.1688 H   0  0  0  1  0  0  0  0  0  0  0  0
    0.2615    0.9801   -1.1823 C   0  0  0  1  0  0  0  0  0  0  0  0
    0.1655    1.9781   -0.8087 H   0  0  0  1  0  0  0  0  0  0  0  0
    0.7265    1.0189   -2.5322 O   0  0  0  1  0  0  0  0  0  0  0  0
    0.5466    0.1773   -2.9575 H   0  0  0  1  0  0  0  0  0  0  0  0
   -0.9769    0.2121   -1.0423 C   0  0  0  1  0  0  0  0  0  0  0  0
   -1.8145    0.7921   -1.3694 H   0  0  0  1  0  0  0  0  0  0  0  0
   -0.9053   -0.9779   -1.7958 O   0  0  0  1  0  0  0  0  0  0  0  0
   -1.7176   -1.4772   -1.6843 H   0  0  0  1  0  0  0  0  0  0  0  0
  1  2  1  0  0  0  0
  1  3  1  0  0  0  0
  3  4  1  0  0  0  0
  3  5  1  0  0  0  0
  3  6  1  0  0  0  0
  6  7  1  0  0  0  0
  6  8  1  0  0  0  0
  6  9  1  0  0  0  0
  8 17  1  0  0  0  0
  9 10  1  0  0  0  0
  9 11  1  0  0  0  0
  9 13  1  0  0  0  0
 11 12  1  0  0  0  0
 13 14  1  0  0  0  0
 13 15  1  0  0  0  0
 13 17  1  0  0  0  0
 15 16  1  0  0  0  0
 17 18  1  0  0  0  0
 17 19  1  0  0  0  0
 19 20  1  0  0  0  0
M  END
> <ConfClashScore>
0 

> <ConfOneFourInteractionScore>
-0.942638 

> <ConfScore>
0.469746 

> <ConfScorePBest>
0.0172718 

> <ConfTolerance>
0.346976 

$$$$
RIB.****
  PyMOL2.4          3D                             0

 20 20  0  0  0  0  0  0  0  0999 V2000
   -0.4803    2.1694    1.8031 O   0  0  0  1  0  0  0  0  0  0  0  0
   -0.3618    2.6282    0.9681 H   0  0  0  1  0  0  0  0  0  0  0  0
    0.4754    1.1225    1.9090 C   0  0  0  1  0  0  0  0  0  0  0  0
    0.4347    0.7194    2.8994 H   0  0  0  1  0  0  0  0  0  0  0  0
    1.4493    1.5270    1.7277 H   0  0  0  1  0  0  0  0  0  0  0  0
    0.2219    0.0081    0.9215 C   0  0  0  1  0  0  0  0  0  0  0  0
    0.3757   -0.9359    1.4011 H   0  0  0  1  0  0  0  0  0  0  0  0
   -1.1201    0.0950    0.3941 O   0  0  0  1  0  0  0  0  0  0  0  0
    1.1498    0.1497   -0.3028 C   0  0  0  1  0  0  0  0  0  0  0  0
    2.0022    0.7534   -0.0706 H   0  0  0  1  0  0  0  0  0  0  0  0
    1.5837   -1.1293   -0.7675 O   0  0  0  1  0  0  0  0  0  0  0  0
    1.6457   -1.7356   -0.0257 H   0  0  0  1  0  0  0  0  0  0  0  0
    0.2667    0.8285   -1.3272 C   0  0  0  1  0  0  0  0  0  0  0  0
    0.2626    1.8905   -1.1969 H   0  0  0  1  0  0  0  0  0  0  0  0
    0.6756    0.5130   -2.6589 O   0  0  0  1  0  0  0  0  0  0  0  0
    1.6297    0.5935   -2.7287 H   0  0  0  1  0  0  0  0  0  0  0  0
   -1.0868    0.2264   -1.0067 C   0  0  0  1  0  0  0  0  0  0  0  0
   -1.8715    0.8731   -1.3399 H   0  0  0  1  0  0  0  0  0  0  0  0
   -1.2228   -1.0349   -1.6229 O   0  0  0  1  0  0  0  0  0  0  0  0
   -2.1218   -1.3519   -1.5089 H   0  0  0  1  0  0  0  0  0  0  0  0
  1  2  1  0  0  0  0
  1  3  1  0  0  0  0
  3  4  1  0  0  0  0
  3  5  1  0  0  0  0
  3  6  1  0  0  0  0
  6  7  1  0  0  0  0
  6  8  1  0  0  0  0
  6  9  1  0  0  0  0
  8 17  1  0  0  0  0
  9 10  1  0  0  0  0
  9 11  1  0  0  0  0
  9 13  1  0  0  0  0
 11 12  1  0  0  0  0
 13 14  1  0  0  0  0
 13 15  1  0  0  0  0
 13 17  1  0  0  0  0
 15 16  1  0  0  0  0
 17 18  1  0  0  0  0
 17 19  1  0  0  0  0
 19 20  1  0  0  0  0
M  END
> <ConfClashScore>
0 

> <ConfOneFourInteractionScore>
-0.980166 

> <ConfScore>
0.475408 

> <ConfScorePBest>
0.0168463 

> <ConfTolerance>
0.25 

$$$$
RIB.****
  PyMOL2.4          3D                             0

 20 20  0  0  0  0  0  0  0  0999 V2000
    0.7812   -0.4362    3.2686 O   0  0  0  1  0  0  0  0  0  0  0  0
    1.5164    0.0184    3.6863 H   0  0  0  1  0  0  0  0  0  0  0  0
    0.2873    0.3466    2.2030 C   0  0  0  1  0  0  0  0  0  0  0  0
    0.9329    1.1912    2.0822 H   0  0  0  1  0  0  0  0  0  0  0  0
   -0.6950    0.6821    2.4628 H   0  0  0  1  0  0  0  0  0  0  0  0
    0.2034   -0.3777    0.8753 C   0  0  0  1  0  0  0  0  0  0  0  0
    0.5011   -1.3972    1.0051 H   0  0  0  1  0  0  0  0  0  0  0  0
   -1.1351   -0.3214    0.3736 O   0  0  0  1  0  0  0  0  0  0  0  0
    1.1211    0.3102   -0.1572 C   0  0  0  1  0  0  0  0  0  0  0  0
    1.3208    1.3252    0.1163 H   0  0  0  1  0  0  0  0  0  0  0  0
    2.3543   -0.3951   -0.3053 O   0  0  0  1  0  0  0  0  0  0  0  0
    3.0126   -0.0163    0.2818 H   0  0  0  1  0  0  0  0  0  0  0  0
    0.2683    0.2331   -1.4542 C   0  0  0  1  0  0  0  0  0  0  0  0
    0.5049    1.0301   -2.1278 H   0  0  0  1  0  0  0  0  0  0  0  0
    0.4375   -1.0195   -2.1194 O   0  0  0  1  0  0  0  0  0  0  0  0
    1.0289   -0.9078   -2.8673 H   0  0  0  1  0  0  0  0  0  0  0  0
   -1.1608    0.3818   -0.8770 C   0  0  0  1  0  0  0  0  0  0  0  0
   -1.3977    1.4138   -0.7225 H   0  0  0  1  0  0  0  0  0  0  0  0
   -2.1084   -0.1933   -1.7484 O   0  0  0  1  0  0  0  0  0  0  0  0
   -2.3723    0.4536   -2.4069 H   0  0  0  1  0  0  0  0  0  0  0  0
  1  2  1  0  0  0  0
  1  3  1  0  0  0  0
  3  4  1  0  0  0  0
  3  5  1  0  0  0  0
  3  6  1  0  0  0  0
  6  7  1  0  0  0  0
  6  8  1  0  0  0  0
  6  9  1  0  0  0  0
  8 17  1  0  0  0  0
  9 10  1  0  0  0  0
  9 11  1  0  0  0  0
  9 13  1  0  0  0  0
 11 12  1  0  0  0  0
 13 14  1  0  0  0  0
 13 15  1  0  0  0  0
 13 17  1  0  0  0  0
 15 16  1  0  0  0  0
 17 18  1  0  0  0  0
 17 19  1  0  0  0  0
 19 20  1  0  0  0  0
M  END
> <ConfClashScore>
0 

> <ConfOneFourInteractionScore>
-0.922804 

> <ConfScore>
0.487501 

> <ConfScorePBest>
0.0164208 

> <ConfTolerance>
0.25 

$$$$
RIB.****
  PyMOL2.4          3D                             0

 20 20  0  0  0  0  0  0  0  0999 V2000
   -1.4516    1.0521    2.1129 O   0  0  0  1  0  0  0  0  0  0  0  0
   -1.7758    1.9456    1.9781 H   0  0  0  1  0  0  0  0  0  0  0  0
   -0.0694    0.9944    1.7860 C   0  0  0  1  0  0  0  0  0  0  0  0
    0.4914    0.8630    2.6877 H   0  0  0  1  0  0  0  0  0  0  0  0
    0.2122    1.9162    1.3213 H   0  0  0  1  0  0  0  0  0  0  0  0
    0.2522   -0.1367    0.8484 C   0  0  0  1  0  0  0  0  0  0  0  0
    0.6487   -0.9601    1.4049 H   0  0  0  1  0  0  0  0  0  0  0  0
   -0.9189   -0.5371    0.1206 O   0  0  0  1  0  0  0  0  0  0  0  0
    1.2230    0.3071   -0.1949 C   0  0  0  1  0  0  0  0  0  0  0  0
    1.8528    1.0863    0.1806 H   0  0  0  1  0  0  0  0  0  0  0  0
    2.0294   -0.7882   -0.6342 O   0  0  0  1  0  0  0  0  0  0  0  0
    1.9789   -1.5008    0.0071 H   0  0  0  1  0  0  0  0  0  0  0  0
    0.3556    0.8167   -1.3198 C   0  0  0  1  0  0  0  0  0  0  0  0
    0.4020    1.8842   -1.3764 H   0  0  0  1  0  0  0  0  0  0  0  0
    0.7685    0.2548   -2.5663 O   0  0  0  1  0  0  0  0  0  0  0  0
    0.4902   -0.6629   -2.6120 H   0  0  0  1  0  0  0  0  0  0  0  0
   -1.0346    0.3664   -0.9723 C   0  0  0  1  0  0  0  0  0  0  0  0
   -1.6337    1.2074   -0.6917 H   0  0  0  1  0  0  0  0  0  0  0  0
   -1.6233   -0.2832   -2.0771 O   0  0  0  1  0  0  0  0  0  0  0  0
   -1.8554   -1.1824   -1.8338 H   0  0  0  1  0  0  0  0  0  0  0  0
  1  2  1  0  0  0  0
  1  3  1  0  0  0  0
  3  4  1  0  0  0  0
  3  5  1  0  0  0  0
  3  6  1  0  0  0  0
  6  7  1  0  0  0  0
  6  8  1  0  0  0  0
  6  9  1  0  0  0  0
  8 17  1  0  0  0  0
  9 10  1  0  0  0  0
  9 11  1  0  0  0  0
  9 13  1  0  0  0  0
 11 12  1  0  0  0  0
 13 14  1  0  0  0  0
 13 15  1  0  0  0  0
 13 17  1  0  0  0  0
 15 16  1  0  0  0  0
 17 18  1  0  0  0  0
 17 19  1  0  0  0  0
 19 20  1  0  0  0  0
M  END
> <ConfClashScore>
0 

> <ConfOneFourInteractionScore>
-0.980166 

> <ConfScore>
0.488563 

> <ConfScorePBest>
0.0159954 

> <ConfTolerance>
0.25 

$$$$
RIB.****
  PyMOL2.4          3D                             0

 20 20  0  0  0  0  0  0  0  0999 V2000
    1.9222    0.3323    2.2446 O   0  0  0  1  0  0  0  0  0  0  0  0
    2.2773    0.1578    3.1192 H   0  0  0  1  0  0  0  0  0  0  0  0
    0.5571   -0.0614    2.1995 C   0  0  0  1  0  0  0  0  0  0  0  0
   -0.0608    0.7168    2.5962 H   0  0  0  1  0  0  0  0  0  0  0  0
    0.4158   -0.9555    2.7700 H   0  0  0  1  0  0  0  0  0  0  0  0
    0.2033   -0.3133    0.7458 C   0  0  0  1  0  0  0  0  0  0  0  0
    0.2199   -1.3654    0.5513 H   0  0  0  1  0  0  0  0  0  0  0  0
   -1.0864    0.2376    0.4366 O   0  0  0  1  0  0  0  0  0  0  0  0
    1.1556    0.4060   -0.1613 C   0  0  0  1  0  0  0  0  0  0  0  0
    1.4418    1.3504    0.2524 H   0  0  0  1  0  0  0  0  0  0  0  0
    2.3225   -0.3798   -0.4080 O   0  0  0  1  0  0  0  0  0  0  0  0
    2.7717   -0.5558    0.4220 H   0  0  0  1  0  0  0  0  0  0  0  0
    0.3451    0.5895   -1.4276 C   0  0  0  1  0  0  0  0  0  0  0  0
    0.5434    1.5456   -1.8652 H   0  0  0  1  0  0  0  0  0  0  0  0
    0.6492   -0.4390   -2.3710 O   0  0  0  1  0  0  0  0  0  0  0  0
    0.3837   -1.2898   -2.0142 H   0  0  0  1  0  0  0  0  0  0  0  0
   -1.1007    0.4961   -0.9872 C   0  0  0  1  0  0  0  0  0  0  0  0
   -1.6077    1.4163   -1.1896 H   0  0  0  1  0  0  0  0  0  0  0  0
   -1.7481   -0.5573   -1.6657 O   0  0  0  1  0  0  0  0  0  0  0  0
   -2.1844   -0.2138   -2.4488 H   0  0  0  1  0  0  0  0  0  0  0  0
  1  2  1  0  0  0  0
  1  3  1  0  0  0  0
  3  4  1  0  0  0  0
  3  5  1  0  0  0  0
  3  6  1  0  0  0  0
  6  7  1  0  0  0  0
  6  8  1  0  0  0  0
  6  9  1  0  0  0  0
  8 17  1  0  0  0  0
  9 10  1  0  0  0  0
  9 11  1  0  0  0  0
  9 13  1  0  0  0  0
 11 12  1  0  0  0  0
 13 14  1  0  0  0  0
 13 15  1  0  0  0  0
 13 17  1  0  0  0  0
 15 16  1  0  0  0  0
 17 18  1  0  0  0  0
 17 19  1  0  0  0  0
 19 20  1  0  0  0  0
M  END
> <ConfClashScore>
0 

> <ConfOneFourInteractionScore>
-0.95967 

> <ConfScore>
0.491813 

> <ConfScorePBest>
0.0155699 

> <ConfTolerance>
0.25 

$$$$
RIB.****
  PyMOL2.4          3D                             0

 20 20  0  0  0  0  0  0  0  0999 V2000
    1.6793    0.8157    2.3010 O   0  0  0  1  0  0  0  0  0  0  0  0
    2.3430    0.1245    2.3602 H   0  0  0  1  0  0  0  0  0  0  0  0
    0.3901    0.2273    2.1896 C   0  0  0  1  0  0  0  0  0  0  0  0
   -0.3504    0.9303    2.5093 H   0  0  0  1  0  0  0  0  0  0  0  0
    0.3433   -0.6460    2.8062 H   0  0  0  1  0  0  0  0  0  0  0  0
    0.1309   -0.1559    0.7610 C   0  0  0  1  0  0  0  0  0  0  0  0
    0.1222   -1.2223    0.6732 H   0  0  0  1  0  0  0  0  0  0  0  0
   -1.1152    0.3845    0.3244 O   0  0  0  1  0  0  0  0  0  0  0  0
    1.1838    0.4279   -0.1303 C   0  0  0  1  0  0  0  0  0  0  0  0
    1.6538    1.2670    0.3386 H   0  0  0  1  0  0  0  0  0  0  0  0
    2.1712   -0.5519   -0.4547 O   0  0  0  1  0  0  0  0  0  0  0  0
    1.8453   -1.4244   -0.2220 H   0  0  0  1  0  0  0  0  0  0  0  0
    0.4285    0.8614   -1.3743 C   0  0  0  1  0  0  0  0  0  0  0  0
    0.5094    1.9188   -1.5169 H   0  0  0  1  0  0  0  0  0  0  0  0
    0.9270    0.1850   -2.5293 O   0  0  0  1  0  0  0  0  0  0  0  0
    0.6167   -0.7235   -2.5274 H   0  0  0  1  0  0  0  0  0  0  0  0
   -1.0116    0.4652   -1.0996 C   0  0  0  1  0  0  0  0  0  0  0  0
   -1.6833    1.2046   -1.4829 H   0  0  0  1  0  0  0  0  0  0  0  0
   -1.3008   -0.7830   -1.6871 O   0  0  0  1  0  0  0  0  0  0  0  0
   -2.0019   -1.2147   -1.1935 H   0  0  0  1  0  0  0  0  0  0  0  0
  1  2  1  0  0  0  0
  1  3  1  0  0  0  0
  3  4  1  0  0  0  0
  3  5  1  0  0  0  0
  3  6  1  0  0  0  0
  6  7  1  0  0  0  0
  6  8  1  0  0  0  0
  6  9  1  0  0  0  0
  8 17  1  0  0  0  0
  9 10  1  0  0  0  0
  9 11  1  0  0  0  0
  9 13  1  0  0  0  0
 11 12  1  0  0  0  0
 13 14  1  0  0  0  0
 13 15  1  0  0  0  0
 13 17  1  0  0  0  0
 15 16  1  0  0  0  0
 17 18  1  0  0  0  0
 17 19  1  0  0  0  0
 19 20  1  0  0  0  0
M  END
> <ConfClashScore>
0 

> <ConfOneFourInteractionScore>
-0.95967 

> <ConfScore>
0.496136 

> <ConfScorePBest>
0.0151444 

> <ConfTolerance>
0.25 

$$$$
RIB.****
  PyMOL2.4          3D                             0

 20 20  0  0  0  0  0  0  0  0999 V2000
    1.2011    1.4241    2.2160 O   0  0  0  1  0  0  0  0  0  0  0  0
    2.0463    0.9735    2.1511 H   0  0  0  1  0  0  0  0  0  0  0  0
    0.1539    0.4640    2.2630 C   0  0  0  1  0  0  0  0  0  0  0  0
   -0.7881    0.9567    2.3848 H   0  0  0  1  0  0  0  0  0  0  0  0
    0.3125   -0.2099    3.0788 H   0  0  0  1  0  0  0  0  0  0  0  0
    0.1742   -0.2906    0.9623 C   0  0  0  1  0  0  0  0  0  0  0  0
    0.5151   -1.2901    1.1345 H   0  0  0  1  0  0  0  0  0  0  0  0
   -1.1380   -0.3150    0.3929 O   0  0  0  1  0  0  0  0  0  0  0  0
    1.1083    0.4175   -0.0413 C   0  0  0  1  0  0  0  0  0  0  0  0
    1.2430    1.4478    0.2141 H   0  0  0  1  0  0  0  0  0  0  0  0
    2.3810   -0.2274   -0.1084 O   0  0  0  1  0  0  0  0  0  0  0  0
    2.5307   -0.5490   -1.0004 H   0  0  0  1  0  0  0  0  0  0  0  0
    0.3281    0.2651   -1.3768 C   0  0  0  1  0  0  0  0  0  0  0  0
    0.5590    1.0563   -2.0591 H   0  0  0  1  0  0  0  0  0  0  0  0
    0.5933   -0.9932   -1.9984 O   0  0  0  1  0  0  0  0  0  0  0  0
    1.3865   -0.9248   -2.5347 H   0  0  0  1  0  0  0  0  0  0  0  0
   -1.1344    0.3549   -0.8761 C   0  0  0  1  0  0  0  0  0  0  0  0
   -1.4298    1.3770   -0.7617 H   0  0  0  1  0  0  0  0  0  0  0  0
   -2.0060   -0.2888   -1.7775 O   0  0  0  1  0  0  0  0  0  0  0  0
   -2.3990    0.3622   -2.3634 H   0  0  0  1  0  0  0  0  0  0  0  0
  1  2  1  0  0  0  0
  1  3  1  0  0  0  0
  3  4  1  0  0  0  0
  3  5  1  0  0  0  0
  3  6  1  0  0  0  0
  6  7  1  0  0  0  0
  6  8  1  0  0  0  0
  6  9  1  0  0  0  0
  8 17  1  0  0  0  0
  9 10  1  0  0  0  0
  9 11  1  0  0  0  0
  9 13  1  0  0  0  0
 11 12  1  0  0  0  0
 13 14  1  0  0  0  0
 13 15  1  0  0  0  0
 13 17  1  0  0  0  0
 15 16  1  0  0  0  0
 17 18  1  0  0  0  0
 17 19  1  0  0  0  0
 19 20  1  0  0  0  0
M  END
> <ConfClashScore>
0 

> <ConfOneFourInteractionScore>
-0.95967 

> <ConfScore>
0.496486 

> <ConfScorePBest>
0.014719 

> <ConfTolerance>
0.25 

$$$$
RIB.****
  PyMOL2.4          3D                             0

 20 20  0  0  0  0  0  0  0  0999 V2000
    0.4669    2.3753    1.2286 O   0  0  0  1  0  0  0  0  0  0  0  0
    0.9306    2.8639    1.9126 H   0  0  0  1  0  0  0  0  0  0  0  0
   -0.0613    1.1753    1.7778 C   0  0  0  1  0  0  0  0  0  0  0  0
   -1.1284    1.2500    1.8034 H   0  0  0  1  0  0  0  0  0  0  0  0
    0.3127    1.0598    2.7737 H   0  0  0  1  0  0  0  0  0  0  0  0
    0.3211   -0.0479    0.9703 C   0  0  0  1  0  0  0  0  0  0  0  0
    0.7523   -0.7827    1.6175 H   0  0  0  1  0  0  0  0  0  0  0  0
   -0.8332   -0.5872    0.2828 O   0  0  0  1  0  0  0  0  0  0  0  0
    1.2721    0.3170   -0.1187 C   0  0  0  1  0  0  0  0  0  0  0  0
    1.9212    1.1092    0.1912 H   0  0  0  1  0  0  0  0  0  0  0  0
    2.0526   -0.8124   -0.5129 O   0  0  0  1  0  0  0  0  0  0  0  0
    1.5350   -1.6135   -0.4039 H   0  0  0  1  0  0  0  0  0  0  0  0
    0.3721    0.7673   -1.2420 C   0  0  0  1  0  0  0  0  0  0  0  0
    0.2911    1.8342   -1.2542 H   0  0  0  1  0  0  0  0  0  0  0  0
    0.8736    0.3129   -2.4998 O   0  0  0  1  0  0  0  0  0  0  0  0
    0.5589   -0.5785   -2.6671 H   0  0  0  1  0  0  0  0  0  0  0  0
   -0.9588    0.1408   -0.9476 C   0  0  0  1  0  0  0  0  0  0  0  0
   -1.7054    0.9007   -0.8472 H   0  0  0  1  0  0  0  0  0  0  0  0
   -1.3177   -0.7361   -1.9899 O   0  0  0  1  0  0  0  0  0  0  0  0
   -2.2076   -0.5330   -2.2874 H   0  0  0  1  0  0  0  0  0  0  0  0
  1  2  1  0  0  0  0
  1  3  1  0  0  0  0
  3  4  1  0  0  0  0
  3  5  1  0  0  0  0
  3  6  1  0  0  0  0
  6  7  1  0  0  0  0
  6  8  1  0  0  0  0
  6  9  1  0  0  0  0
  8 17  1  0  0  0  0
  9 10  1  0  0  0  0
  9 11  1  0  0  0  0
  9 13  1  0  0  0  0
 11 12  1  0  0  0  0
 13 14  1  0  0  0  0
 13 15  1  0  0  0  0
 13 17  1  0  0  0  0
 15 16  1  0  0  0  0
 17 18  1  0  0  0  0
 17 19  1  0  0  0  0
 19 20  1  0  0  0  0
M  END
> <ConfClashScore>
0 

> <ConfOneFourInteractionScore>
-0.95967 

> <ConfScore>
0.515912 

> <ConfScorePBest>
0.0142935 

> <ConfTolerance>
0.25 

$$$$
RIB.****
  PyMOL2.4          3D                             0

 20 20  0  0  0  0  0  0  0  0999 V2000
   -0.8864    2.2757    0.7199 O   0  0  0  1  0  0  0  0  0  0  0  0
   -0.5461    3.1312    0.4480 H   0  0  0  1  0  0  0  0  0  0  0  0
    0.1277    1.5602    1.4130 C   0  0  0  1  0  0  0  0  0  0  0  0
   -0.0821    1.5727    2.4622 H   0  0  0  1  0  0  0  0  0  0  0  0
    1.0757    2.0225    1.2327 H   0  0  0  1  0  0  0  0  0  0  0  0
    0.1653    0.1310    0.9256 C   0  0  0  1  0  0  0  0  0  0  0  0
    0.4269   -0.5162    1.7366 H   0  0  0  1  0  0  0  0  0  0  0  0
   -1.0604   -0.2446    0.3458 O   0  0  0  1  0  0  0  0  0  0  0  0
    1.1231   -0.0297   -0.2400 C   0  0  0  1  0  0  0  0  0  0  0  0
    2.1066    0.3340   -0.0272 H   0  0  0  1  0  0  0  0  0  0  0  0
    1.2045   -1.3745   -0.7156 O   0  0  0  1  0  0  0  0  0  0  0  0
    1.9535   -1.8143   -0.3067 H   0  0  0  1  0  0  0  0  0  0  0  0
    0.3375    0.8850   -1.1702 C   0  0  0  1  0  0  0  0  0  0  0  0
    0.3214    1.9009   -0.8347 H   0  0  0  1  0  0  0  0  0  0  0  0
    0.8063    0.8355   -2.5186 O   0  0  0  1  0  0  0  0  0  0  0  0
    0.0574    0.7749   -3.1161 H   0  0  0  1  0  0  0  0  0  0  0  0
   -0.9895    0.1893   -0.9880 C   0  0  0  1  0  0  0  0  0  0  0  0
   -1.7894    0.8695   -1.1935 H   0  0  0  1  0  0  0  0  0  0  0  0
   -1.0764   -0.9166   -1.8589 O   0  0  0  1  0  0  0  0  0  0  0  0
   -0.8485   -1.7184   -1.3825 H   0  0  0  1  0  0  0  0  0  0  0  0
  1  2  1  0  0  0  0
  1  3  1  0  0  0  0
  3  4  1  0  0  0  0
  3  5  1  0  0  0  0
  3  6  1  0  0  0  0
  6  7  1  0  0  0  0
  6  8  1  0  0  0  0
  6  9  1  0  0  0  0
  8 17  1  0  0  0  0
  9 10  1  0  0  0  0
  9 11  1  0  0  0  0
  9 13  1  0  0  0  0
 11 12  1  0  0  0  0
 13 14  1  0  0  0  0
 13 15  1  0  0  0  0
 13 17  1  0  0  0  0
 15 16  1  0  0  0  0
 17 18  1  0  0  0  0
 17 19  1  0  0  0  0
 19 20  1  0  0  0  0
M  END
> <ConfClashScore>
0 

> <ConfOneFourInteractionScore>
-0.980166 

> <ConfScore>
0.515982 

> <ConfScorePBest>
0.013868 

> <ConfTolerance>
0.25 

$$$$
RIB.****
  PyMOL2.4          3D                             0

 20 20  0  0  0  0  0  0  0  0999 V2000
   -1.4507    0.9736    1.7917 O   0  0  0  1  0  0  0  0  0  0  0  0
   -2.0275    0.8366    2.5467 H   0  0  0  1  0  0  0  0  0  0  0  0
   -0.2182    0.2990    2.0076 C   0  0  0  1  0  0  0  0  0  0  0  0
   -0.3411   -0.4264    2.7845 H   0  0  0  1  0  0  0  0  0  0  0  0
    0.5295    1.0081    2.2961 H   0  0  0  1  0  0  0  0  0  0  0  0
    0.2127   -0.3963    0.7333 C   0  0  0  1  0  0  0  0  0  0  0  0
    0.7961   -1.2594    0.9771 H   0  0  0  1  0  0  0  0  0  0  0  0
   -0.8336   -0.7232   -0.0069 O   0  0  0  1  0  0  0  0  0  0  0  0
    0.9789    0.5390   -0.1599 C   0  0  0  1  0  0  0  0  0  0  0  0
    0.7832    1.5687    0.0552 H   0  0  0  1  0  0  0  0  0  0  0  0
    2.3874    0.3041   -0.1258 O   0  0  0  1  0  0  0  0  0  0  0  0
    2.5751   -0.5695   -0.4766 H   0  0  0  1  0  0  0  0  0  0  0  0
    0.3552    0.0909   -1.4256 C   0  0  0  1  0  0  0  0  0  0  0  0
    0.5997    0.6806   -2.2843 H   0  0  0  1  0  0  0  0  0  0  0  0
    0.5342   -1.2929   -1.7307 O   0  0  0  1  0  0  0  0  0  0  0  0
    0.8939   -1.3819   -2.6163 H   0  0  0  1  0  0  0  0  0  0  0  0
   -1.0534    0.4599   -0.7202 C   0  0  0  1  0  0  0  0  0  0  0  0
   -1.0536    1.3558   -0.1352 H   0  0  0  1  0  0  0  0  0  0  0  0
   -2.1770    0.4537   -1.5719 O   0  0  0  1  0  0  0  0  0  0  0  0
   -1.9146    0.7373   -2.4507 H   0  0  0  1  0  0  0  0  0  0  0  0
  1  2  1  0  0  0  0
  1  3  1  0  0  0  0
  3  4  1  0  0  0  0
  3  5  1  0  0  0  0
  3  6  1  0  0  0  0
  6  7  1  0  0  0  0
  6  8  1  0  0  0  0
  6  9  1  0  0  0  0
  8 17  1  0  0  0  0
  9 10  1  0  0  0  0
  9 11  1  0  0  0  0
  9 13  1  0  0  0  0
 11 12  1  0  0  0  0
 13 14  1  0  0  0  0
 13 15  1  0  0  0  0
 13 17  1  0  0  0  0
 15 16  1  0  0  0  0
 17 18  1  0  0  0  0
 17 19  1  0  0  0  0
 19 20  1  0  0  0  0
M  END
> <ConfClashScore>
0 

> <ConfOneFourInteractionScore>
-0.980166 

> <ConfScore>
0.516003 

> <ConfScorePBest>
0.0134426 

> <ConfTolerance>
0.25 

$$$$
RIB.****
  PyMOL2.4          3D                             0

 20 20  0  0  0  0  0  0  0  0999 V2000
   -0.5497    1.6247    2.7640 O   0  0  0  1  0  0  0  0  0  0  0  0
   -0.6403    1.4374    3.7012 H   0  0  0  1  0  0  0  0  0  0  0  0
    0.5161    0.8527    2.2267 C   0  0  0  1  0  0  0  0  0  0  0  0
    0.8665    0.1654    2.9682 H   0  0  0  1  0  0  0  0  0  0  0  0
    1.3149    1.5027    1.9365 H   0  0  0  1  0  0  0  0  0  0  0  0
    0.0330    0.0893    1.0273 C   0  0  0  1  0  0  0  0  0  0  0  0
   -0.1676   -0.9241    1.3059 H   0  0  0  1  0  0  0  0  0  0  0  0
   -1.1848    0.7186    0.4779 O   0  0  0  1  0  0  0  0  0  0  0  0
    1.0788    0.1342   -0.0834 C   0  0  0  1  0  0  0  0  0  0  0  0
    1.8682    0.8139    0.1613 H   0  0  0  1  0  0  0  0  0  0  0  0
    1.6247   -1.1642   -0.3245 O   0  0  0  1  0  0  0  0  0  0  0  0
    1.9906   -1.1983   -1.2114 H   0  0  0  1  0  0  0  0  0  0  0  0
    0.2770    0.6347   -1.3099 C   0  0  0  1  0  0  0  0  0  0  0  0
    0.4255    1.6823   -1.4695 H   0  0  0  1  0  0  0  0  0  0  0  0
    0.6358   -0.0832   -2.4914 O   0  0  0  1  0  0  0  0  0  0  0  0
    1.2353    0.4487   -3.0199 H   0  0  0  1  0  0  0  0  0  0  0  0
   -1.1622    0.3362   -0.8961 C   0  0  0  1  0  0  0  0  0  0  0  0
   -1.8553    0.9165   -1.4685 H   0  0  0  1  0  0  0  0  0  0  0  0
   -1.4565   -1.0224   -1.0448 O   0  0  0  1  0  0  0  0  0  0  0  0
   -0.9927   -1.3689   -1.8107 H   0  0  0  1  0  0  0  0  0  0  0  0
  1  2  1  0  0  0  0
  1  3  1  0  0  0  0
  3  4  1  0  0  0  0
  3  5  1  0  0  0  0
  3  6  1  0  0  0  0
  6  7  1  0  0  0  0
  6  8  1  0  0  0  0
  6  9  1  0  0  0  0
  8 17  1  0  0  0  0
  9 10  1  0  0  0  0
  9 11  1  0  0  0  0
  9 13  1  0  0  0  0
 11 12  1  0  0  0  0
 13 14  1  0  0  0  0
 13 15  1  0  0  0  0
 13 17  1  0  0  0  0
 15 16  1  0  0  0  0
 17 18  1  0  0  0  0
 17 19  1  0  0  0  0
 19 20  1  0  0  0  0
M  END
> <ConfClashScore>
0 

> <ConfOneFourInteractionScore>
-0.980166 

> <ConfScore>
0.525864 

> <ConfScorePBest>
0.0130171 

> <ConfTolerance>
0.25 

$$$$
RIB.****
  PyMOL2.4          3D                             0

 20 20  0  0  0  0  0  0  0  0999 V2000
    0.4777    0.8798    3.1716 O   0  0  0  1  0  0  0  0  0  0  0  0
   -0.3200    0.9172    3.7044 H   0  0  0  1  0  0  0  0  0  0  0  0
    0.1736    1.2543    1.8357 C   0  0  0  1  0  0  0  0  0  0  0  0
    0.8786    1.9815    1.4907 H   0  0  0  1  0  0  0  0  0  0  0  0
   -0.8140    1.6630    1.7868 H   0  0  0  1  0  0  0  0  0  0  0  0
    0.2592    0.0081    0.9841 C   0  0  0  1  0  0  0  0  0  0  0  0
    0.5645   -0.8188    1.5907 H   0  0  0  1  0  0  0  0  0  0  0  0
   -1.0223   -0.2678    0.3411 O   0  0  0  1  0  0  0  0  0  0  0  0
    1.2182    0.2108   -0.1665 C   0  0  0  1  0  0  0  0  0  0  0  0
    2.0162    0.8670    0.1120 H   0  0  0  1  0  0  0  0  0  0  0  0
    1.7580   -1.0362   -0.6068 O   0  0  0  1  0  0  0  0  0  0  0  0
    1.1842   -1.7517   -0.3231 H   0  0  0  1  0  0  0  0  0  0  0  0
    0.3422    0.8442   -1.2556 C   0  0  0  1  0  0  0  0  0  0  0  0
    0.3373    1.9111   -1.1744 H   0  0  0  1  0  0  0  0  0  0  0  0
    0.7885    0.4673   -2.5590 O   0  0  0  1  0  0  0  0  0  0  0  0
    0.0724    0.0355   -3.0305 H   0  0  0  1  0  0  0  0  0  0  0  0
   -1.0470    0.2595   -0.9553 C   0  0  0  1  0  0  0  0  0  0  0  0
   -1.7870    1.0298   -1.0201 H   0  0  0  1  0  0  0  0  0  0  0  0
   -1.3413   -0.7402   -1.8628 O   0  0  0  1  0  0  0  0  0  0  0  0
   -0.6508   -1.4068   -1.8403 H   0  0  0  1  0  0  0  0  0  0  0  0
  1  2  1  0  0  0  0
  1  3  1  0  0  0  0
  3  4  1  0  0  0  0
  3  5  1  0  0  0  0
  3  6  1  0  0  0  0
  6  7  1  0  0  0  0
  6  8  1  0  0  0  0
  6  9  1  0  0  0  0
  8 17  1  0  0  0  0
  9 10  1  0  0  0  0
  9 11  1  0  0  0  0
  9 13  1  0  0  0  0
 11 12  1  0  0  0  0
 13 14  1  0  0  0  0
 13 15  1  0  0  0  0
 13 17  1  0  0  0  0
 15 16  1  0  0  0  0
 17 18  1  0  0  0  0
 17 19  1  0  0  0  0
 19 20  1  0  0  0  0
M  END
> <ConfClashScore>
0.000451511 

> <ConfOneFourInteractionScore>
-0.922804 

> <ConfScore>
0.563439 

> <ConfScorePBest>
0.0125917 

> <ConfTolerance>
0.25 

$$$$
RIB.****
  PyMOL2.4          3D                             0

 20 20  0  0  0  0  0  0  0  0999 V2000
    1.3273    1.2049    2.3417 O   0  0  0  1  0  0  0  0  0  0  0  0
    1.0120    1.9008    1.7604 H   0  0  0  1  0  0  0  0  0  0  0  0
    0.4064    0.1221    2.3284 C   0  0  0  1  0  0  0  0  0  0  0  0
   -0.4772    0.4001    2.8639 H   0  0  0  1  0  0  0  0  0  0  0  0
    0.8535   -0.7307    2.7952 H   0  0  0  1  0  0  0  0  0  0  0  0
    0.0426   -0.2193    0.9012 C   0  0  0  1  0  0  0  0  0  0  0  0
   -0.0821   -1.2779    0.8079 H   0  0  0  1  0  0  0  0  0  0  0  0
   -1.1553    0.4675    0.5068 O   0  0  0  1  0  0  0  0  0  0  0  0
    1.0965    0.2732   -0.0442 C   0  0  0  1  0  0  0  0  0  0  0  0
    1.5035    1.2062    0.2856 H   0  0  0  1  0  0  0  0  0  0  0  0
    2.1484   -0.6830   -0.1838 O   0  0  0  1  0  0  0  0  0  0  0  0
    2.9715   -0.2280   -0.3764 H   0  0  0  1  0  0  0  0  0  0  0  0
    0.3360    0.4397   -1.3434 C   0  0  0  1  0  0  0  0  0  0  0  0
    0.6691    1.3130   -1.8643 H   0  0  0  1  0  0  0  0  0  0  0  0
    0.5096   -0.7075   -2.1765 O   0  0  0  1  0  0  0  0  0  0  0  0
    0.2286   -0.4997   -3.0706 H   0  0  0  1  0  0  0  0  0  0  0  0
   -1.1148    0.5853   -0.9349 C   0  0  0  1  0  0  0  0  0  0  0  0
   -1.4885    1.5413   -1.2372 H   0  0  0  1  0  0  0  0  0  0  0  0
   -1.8898   -0.4312   -1.5268 O   0  0  0  1  0  0  0  0  0  0  0  0
   -1.3158   -1.0356   -2.0030 H   0  0  0  1  0  0  0  0  0  0  0  0
  1  2  1  0  0  0  0
  1  3  1  0  0  0  0
  3  4  1  0  0  0  0
  3  5  1  0  0  0  0
  3  6  1  0  0  0  0
  6  7  1  0  0  0  0
  6  8  1  0  0  0  0
  6  9  1  0  0  0  0
  8 17  1  0  0  0  0
  9 10  1  0  0  0  0
  9 11  1  0  0  0  0
  9 13  1  0  0  0  0
 11 12  1  0  0  0  0
 13 14  1  0  0  0  0
 13 15  1  0  0  0  0
 13 17  1  0  0  0  0
 15 16  1  0  0  0  0
 17 18  1  0  0  0  0
 17 19  1  0  0  0  0
 19 20  1  0  0  0  0
M  END
> <ConfClashScore>
0.00686284 

> <ConfOneFourInteractionScore>
-0.95967 

> <ConfScore>
1.13666 

> <ConfScorePBest>
0.0121662 

> <ConfTolerance>
0.25 

$$$$
