# created with PyMOL 2.4.0
@<TRIPOS>MOLECULE
RIB.****
20 20 1                 
SMALL
USER_CHARGES
@<TRIPOS>ATOM
1	   O	-0.774	-0.372	3.102	O.3	1	UNK0	0.000	
2	   H	-1.639	-0.350	2.686	 H	1	UNK0	0.000	
3	   C	0.124	0.364	2.271	C.3	1	UNK0	0.000	
4	   H	1.118	0.359	2.717	 H	1	UNK0	0.000	
5	   H	-0.227	1.392	2.178	 H	1	UNK0	0.000	
6	   C	0.184	-0.281	0.885	C.3	1	UNK0	0.000	
7	   H	0.524	-1.310	0.999	 H	1	UNK0	0.000	
8	   O	-1.110	-0.245	0.276	O.3	1	UNK0	0.000	
9	   C	1.151	0.511	-0.020	C.3	1	UNK0	0.000	
10	   H	1.370	1.514	0.347	 H	1	UNK0	0.000	
11	   O	2.419	-0.141	-0.116	O.3	1	UNK0	0.000	
12	   H	2.264	-1.032	-0.438	 H	1	UNK0	0.000	
13	   C	0.412	0.487	-1.387	C.3	1	UNK0	0.000	
14	   H	0.699	1.287	-2.069	 H	1	UNK0	0.000	
15	   O	0.687	-0.720	-2.100	O.3	1	UNK0	0.000	
16	   H	0.157	-0.711	-2.900	 H	1	UNK0	0.000	
17	   C	-1.065	0.539	-0.925	C.3	1	UNK0	0.000	
18	   H	-1.406	1.561	-0.759	 H	1	UNK0	0.000	
19	   O	-1.918	-0.028	-1.921	O.3	1	UNK0	0.000	
20	   H	-1.626	-0.929	-2.074	 H	1	UNK0	0.000	
@<TRIPOS>BOND
1 1 2 1
2 1 3 1
3 3 4 1
4 3 5 1
5 3 6 1
6 6 7 1
7 6 8 1
8 6 9 1
9 8 17 1
10 9 10 1
11 9 11 1
12 9 13 1
13 11 12 1
14 13 14 1
15 13 15 1
16 13 17 1
17 15 16 1
18 17 18 1
19 17 19 1
20 19 20 1
@<TRIPOS>SUBSTRUCTURE
1	UNK0	1	GROUP	1 ****	UNK
