# created with PyMOL 2.5.2
@<TRIPOS>MOLECULE
SAM
49 51 1                 
SMALL
USER_CHARGES
@<TRIPOS>ATOM
1	   N	-6.815	-0.436	0.939	N.3	1	SAM0	0.000	
2	  CA	-6.177	0.858	0.661	C.3	1	SAM0	0.000	
3	   C	-7.164	1.767	-0.026	C.2	1	SAM0	0.000	
4	   O	-8.035	1.295	-0.737	O.co2	1	SAM0	0.000	
5	 OXT	-7.091	2.974	0.130	O.co2	1	SAM0	0.000	
6	  CB	-4.964	0.644	-0.246	C.3	1	SAM0	0.000	
7	  CG	-3.908	-0.176	0.499	C.3	1	SAM0	0.000	
8	  SD	-2.469	-0.429	-0.576	S.3	1	SAM0	0.000	
9	  CE	-3.103	-1.751	-1.644	C.3	1	SAM0	0.000	
10	 C5'	-1.413	-1.400	0.534	C.3	1	SAM0	0.000	
11	 C4'	-0.103	-1.741	-0.177	C.3	1	SAM0	0.000	
12	 O4'	0.656	-0.542	-0.407	O.3	1	SAM0	0.000	
13	 C3'	0.752	-2.664	0.713	C.3	1	SAM0	0.000	
14	 O3'	1.004	-3.909	0.058	O.3	1	SAM0	0.000	
15	 C2'	2.075	-1.877	0.910	C.3	1	SAM0	0.000	
16	 O2'	3.203	-2.751	0.832	O.3	1	SAM0	0.000	
17	 C1'	2.050	-0.896	-0.290	C.3	1	SAM0	0.000	
18	  N9	2.862	0.290	-0.006	N.pl3	1	SAM0	0.000	
19	  C8	2.426	1.448	0.567	C.2	1	SAM0	0.000	
20	  N7	3.411	2.292	0.670	N.2	1	SAM0	0.000	
21	  C5	4.539	1.731	0.172	C.2	1	SAM0	0.000	
22	  C6	5.870	2.155	0.022	C.2	1	SAM0	0.000	
23	  N6	6.263	3.415	0.438	N.pl3	1	SAM0	0.000	
24	  N1	6.744	1.317	-0.527	N.2	1	SAM0	0.000	
25	  C2	6.378	0.112	-0.925	C.2	1	SAM0	0.000	
26	  N3	5.143	-0.327	-0.805	N.2	1	SAM0	0.000	
27	  C4	4.201	0.438	-0.263	C.2	1	SAM0	0.000	
28	 HN1	-7.662	-0.238	1.449	 H	1	SAM0	0.000	
29	 HN2	-7.095	-0.819	0.048	 H	1	SAM0	0.000	
30	  HA	-5.855	1.313	1.598	 H	1	SAM0	0.000	
31	 HB1	-4.543	1.610	-0.524	 H	1	SAM0	0.000	
32	 HB2	-5.271	0.109	-1.145	 H	1	SAM0	0.000	
33	 HG1	-4.328	-1.142	0.778	 H	1	SAM0	0.000	
34	 HG2	-3.600	0.359	1.398	 H	1	SAM0	0.000	
35	 HE1	-2.339	-2.030	-2.370	 H	1	SAM0	0.000	
36	 HE2	-3.359	-2.619	-1.035	 H	1	SAM0	0.000	
37	 HE3	-3.992	-1.400	-2.169	 H	1	SAM0	0.000	
38	H5'1	-1.199	-0.819	1.432	 H	1	SAM0	0.000	
39	H5'2	-1.927	-2.320	0.811	 H	1	SAM0	0.000	
40	 H4'	-0.314	-2.234	-1.127	 H	1	SAM0	0.000	
41	 H3'	0.261	-2.831	1.672	 H	1	SAM0	0.000	
42	HO3'	1.590	-4.416	0.637	 H	1	SAM0	0.000	
43	 H2'	2.069	-1.336	1.856	 H	1	SAM0	0.000	
44	HO2'	3.160	-3.333	1.603	 H	1	SAM0	0.000	
45	 H1'	2.399	-1.390	-1.197	 H	1	SAM0	0.000	
46	  H8	1.412	1.637	0.887	 H	1	SAM0	0.000	
47	HN61	5.616	4.017	0.837	 H	1	SAM0	0.000	
48	HN62	7.185	3.696	0.329	 H	1	SAM0	0.000	
49	  H2	7.120	-0.537	-1.367	 H	1	SAM0	0.000	
@<TRIPOS>BOND
1 1 2 1
2 1 28 1
3 1 29 1
4 2 3 1
5 2 6 1
6 2 30 1
7 3 4 2
8 3 5 1
9 6 7 1
10 6 31 1
11 6 32 1
12 7 8 1
13 7 33 1
14 7 34 1
15 8 9 1
16 8 10 1
17 9 35 1
18 9 36 1
19 9 37 1
20 10 11 1
21 10 38 1
22 10 39 1
23 11 12 1
24 11 13 1
25 11 40 1
26 12 17 1
27 13 14 1
28 13 15 1
29 13 41 1
30 14 42 1
31 15 16 1
32 15 17 1
33 15 43 1
34 16 44 1
35 17 18 1
36 17 45 1
37 18 19 1
38 18 27 1
39 19 20 2
40 19 46 1
41 20 21 1
42 21 22 1
43 21 27 2
44 22 23 1
45 22 24 2
46 23 47 1
47 23 48 1
48 24 25 1
49 25 26 2
50 25 49 1
51 26 27 1
@<TRIPOS>SUBSTRUCTURE
1	SAM0	1	GROUP	1 ****	SAM
