SAM.****
     RDKit          3D

 50 52  0  0  0  0  0  0  0  0999 V2000
   -6.8150   -0.4360    0.9390 N   0  0  0  0  0  4  0  0  0  0  0  0
   -7.1140   -0.8570    0.0710 H   0  0  0  0  0  0  0  0  0  0  0  0
   -7.6160   -0.2950    1.5380 H   0  0  0  0  0  0  0  0  0  0  0  0
   -6.1540   -1.0450    1.3990 H   0  0  0  0  0  0  0  0  0  0  0  0
   -6.1770    0.8580    0.6610 C   0  0  2  0  0  0  0  0  0  0  0  0
   -5.8540    1.3130    1.5970 H   0  0  0  0  0  0  0  0  0  0  0  0
   -7.1640    1.7670   -0.0260 C   0  0  0  0  0  0  0  0  0  0  0  0
   -8.0350    1.2950   -0.7370 O   0  0  0  0  0  1  0  0  0  0  0  0
   -7.0910    2.9740    0.1300 O   0  0  0  0  0  0  0  0  0  0  0  0
   -4.9640    0.6440   -0.2460 C   0  0  0  0  0  0  0  0  0  0  0  0
   -4.5440    1.6100   -0.5250 H   0  0  0  0  0  0  0  0  0  0  0  0
   -5.2720    0.1090   -1.1440 H   0  0  0  0  0  0  0  0  0  0  0  0
   -3.9080   -0.1760    0.4990 C   0  0  0  0  0  0  0  0  0  0  0  0
   -4.3280   -1.1430    0.7770 H   0  0  0  0  0  0  0  0  0  0  0  0
   -3.6010    0.3590    1.3980 H   0  0  0  0  0  0  0  0  0  0  0  0
   -2.4690   -0.4290   -0.5760 S   0  0  0  0  0  3  0  0  0  0  0  0
   -3.1030   -1.7510   -1.6440 C   0  0  0  0  0  0  0  0  0  0  0  0
   -3.7740   -1.3250   -2.3900 H   0  0  0  0  0  0  0  0  0  0  0  0
   -3.6460   -2.4780   -1.0390 H   0  0  0  0  0  0  0  0  0  0  0  0
   -2.2700   -2.2450   -2.1450 H   0  0  0  0  0  0  0  0  0  0  0  0
   -1.4130   -1.4000    0.5340 C   0  0  0  0  0  0  0  0  0  0  0  0
   -1.9260   -2.3210    0.8110 H   0  0  0  0  0  0  0  0  0  0  0  0
   -1.1990   -0.8200    1.4310 H   0  0  0  0  0  0  0  0  0  0  0  0
   -0.1030   -1.7410   -0.1770 C   0  0  1  0  0  0  0  0  0  0  0  0
   -0.3450   -2.2310   -1.1200 H   0  0  0  0  0  0  0  0  0  0  0  0
    0.6560   -0.5420   -0.4070 O   0  0  0  0  0  0  0  0  0  0  0  0
    0.7520   -2.6640    0.7130 C   0  0  1  0  0  0  0  0  0  0  0  0
    0.2610   -2.9080    1.6550 H   0  0  0  0  0  0  0  0  0  0  0  0
    1.0040   -3.9090    0.0580 O   0  0  0  0  0  0  0  0  0  0  0  0
    1.5700   -4.4300    0.6320 H   0  0  0  0  0  0  0  0  0  0  0  0
    2.0750   -1.8770    0.9100 C   0  0  1  0  0  0  0  0  0  0  0  0
    2.1550   -1.3840    1.8790 H   0  0  0  0  0  0  0  0  0  0  0  0
    3.2030   -2.7510    0.8320 O   0  0  0  0  0  0  0  0  0  0  0  0
    3.9940   -2.2110    0.9010 H   0  0  0  0  0  0  0  0  0  0  0  0
    2.0500   -0.8960   -0.2900 C   0  0  2  0  0  0  0  0  0  0  0  0
    2.4570   -1.3300   -1.2030 H   0  0  0  0  0  0  0  0  0  0  0  0
    2.8620    0.2900   -0.0060 N   0  0  0  0  0  0  0  0  0  0  0  0
    2.4260    1.4480    0.5670 C   0  0  0  0  0  0  0  0  0  0  0  0
    1.4120    1.6370    0.8880 H   0  0  0  0  0  0  0  0  0  0  0  0
    3.4110    2.2920    0.6700 N   0  0  0  0  0  0  0  0  0  0  0  0
    4.5390    1.7310    0.1720 C   0  0  0  0  0  0  0  0  0  0  0  0
    5.8700    2.1550    0.0220 C   0  0  0  0  0  0  0  0  0  0  0  0
    6.2630    3.4150    0.4380 N   0  0  0  0  0  0  0  0  0  0  0  0
    7.2230    3.7070    0.3260 H   0  0  0  0  0  0  0  0  0  0  0  0
    5.5890    4.0430    0.8540 H   0  0  0  0  0  0  0  0  0  0  0  0
    6.7440    1.3170   -0.5270 N   0  0  0  0  0  0  0  0  0  0  0  0
    6.3780    0.1120   -0.9250 C   0  0  0  0  0  0  0  0  0  0  0  0
    7.1200   -0.5380   -1.3650 H   0  0  0  0  0  0  0  0  0  0  0  0
    5.1430   -0.3270   -0.8050 N   0  0  0  0  0  0  0  0  0  0  0  0
    4.2010    0.4380   -0.2630 C   0  0  0  0  0  0  0  0  0  0  0  0
  1  2  1  0
  1  3  1  0
  1  4  1  0
  1  5  1  0
  5  6  1  1
  5  7  1  0
  5 10  1  0
  7  8  1  0
  7  9  2  0
 10 11  1  0
 10 12  1  0
 10 13  1  0
 13 14  1  0
 13 15  1  0
 16 13  1  1
 16 17  1  0
 16 21  1  0
 17 18  1  0
 17 19  1  0
 17 20  1  0
 21 22  1  0
 21 23  1  0
 21 24  1  0
 24 25  1  6
 24 26  1  0
 24 27  1  0
 26 35  1  0
 27 28  1  1
 27 29  1  0
 27 31  1  0
 29 30  1  0
 31 32  1  1
 31 33  1  0
 31 35  1  0
 33 34  1  0
 35 36  1  6
 35 37  1  0
 37 38  1  0
 37 50  1  0
 38 39  1  0
 38 40  2  0
 40 41  1  0
 41 42  1  0
 41 50  2  0
 42 43  1  0
 42 46  2  0
 43 44  1  0
 43 45  1  0
 46 47  1  0
 47 48  1  0
 47 49  2  0
 49 50  1  0
M  CHG  3   1   1   8  -1  16   1
M  END
