# created with PyMOL 2.4.0
@<TRIPOS>MOLECULE
SAM.****
50 52 1                 
SMALL
USER_CHARGES
@<TRIPOS>ATOM
1	   N	-6.815	-0.436	0.939	N.4	1	UNK0	0.000	
2	   H	-7.114	-0.857	0.071	 H	1	UNK0	0.000	
3	   H	-7.616	-0.295	1.538	 H	1	UNK0	0.000	
4	   H	-6.154	-1.045	1.399	 H	1	UNK0	0.000	
5	   C	-6.177	0.858	0.661	C.3	1	UNK0	0.000	
6	   H	-5.854	1.313	1.597	 H	1	UNK0	0.000	
7	   C	-7.164	1.767	-0.026	C.2	1	UNK0	0.000	
8	   O	-8.035	1.295	-0.737	O.co2	1	UNK0	0.000	
9	   O	-7.091	2.974	0.130	O.co2	1	UNK0	0.000	
10	   C	-4.964	0.644	-0.246	C.3	1	UNK0	0.000	
11	   H	-4.544	1.610	-0.525	 H	1	UNK0	0.000	
12	   H	-5.272	0.109	-1.144	 H	1	UNK0	0.000	
13	   C	-3.908	-0.176	0.499	C.3	1	UNK0	0.000	
14	   H	-4.328	-1.143	0.777	 H	1	UNK0	0.000	
15	   H	-3.601	0.359	1.398	 H	1	UNK0	0.000	
16	   S	-2.469	-0.429	-0.576	S.3	1	UNK0	0.000	
17	   C	-3.103	-1.751	-1.644	C.3	1	UNK0	0.000	
18	   H	-3.774	-1.325	-2.390	 H	1	UNK0	0.000	
19	   H	-3.646	-2.478	-1.039	 H	1	UNK0	0.000	
20	   H	-2.270	-2.245	-2.145	 H	1	UNK0	0.000	
21	   C	-1.413	-1.400	0.534	C.3	1	UNK0	0.000	
22	   H	-1.926	-2.321	0.811	 H	1	UNK0	0.000	
23	   H	-1.199	-0.820	1.431	 H	1	UNK0	0.000	
24	   C	-0.103	-1.741	-0.177	C.3	1	UNK0	0.000	
25	   H	-0.345	-2.231	-1.120	 H	1	UNK0	0.000	
26	   O	0.656	-0.542	-0.407	O.3	1	UNK0	0.000	
27	   C	0.752	-2.664	0.713	C.3	1	UNK0	0.000	
28	   H	0.261	-2.908	1.655	 H	1	UNK0	0.000	
29	   O	1.004	-3.909	0.058	O.3	1	UNK0	0.000	
30	   H	1.570	-4.430	0.632	 H	1	UNK0	0.000	
31	   C	2.075	-1.877	0.910	C.3	1	UNK0	0.000	
32	   H	2.155	-1.384	1.879	 H	1	UNK0	0.000	
33	   O	3.203	-2.751	0.832	O.3	1	UNK0	0.000	
34	   H	3.994	-2.211	0.901	 H	1	UNK0	0.000	
35	   C	2.050	-0.896	-0.290	C.3	1	UNK0	0.000	
36	   H	2.457	-1.330	-1.203	 H	1	UNK0	0.000	
37	   N	2.862	0.290	-0.006	N.pl3	1	UNK0	0.000	
38	   C	2.426	1.448	0.567	C.2	1	UNK0	0.000	
39	   H	1.412	1.637	0.888	 H	1	UNK0	0.000	
40	   N	3.411	2.292	0.670	N.2	1	UNK0	0.000	
41	   C	4.539	1.731	0.172	C.2	1	UNK0	0.000	
42	   C	5.870	2.155	0.022	C.2	1	UNK0	0.000	
43	   N	6.263	3.415	0.438	N.pl3	1	UNK0	0.000	
44	   H	7.223	3.707	0.326	 H	1	UNK0	0.000	
45	   H	5.589	4.043	0.854	 H	1	UNK0	0.000	
46	   N	6.744	1.317	-0.527	N.2	1	UNK0	0.000	
47	   C	6.378	0.112	-0.925	C.2	1	UNK0	0.000	
48	   H	7.120	-0.538	-1.365	 H	1	UNK0	0.000	
49	   N	5.143	-0.327	-0.805	N.2	1	UNK0	0.000	
50	   C	4.201	0.438	-0.263	C.2	1	UNK0	0.000	
@<TRIPOS>BOND
1 1 2 1
2 1 3 1
3 1 4 1
4 1 5 1
5 5 6 1
6 5 7 1
7 5 10 1
8 7 8 ar
9 7 9 ar
10 10 11 1
11 10 12 1
12 10 13 1
13 13 14 1
14 13 15 1
15 13 16 1
16 16 17 1
17 16 21 1
18 17 18 1
19 17 19 1
20 17 20 1
21 21 22 1
22 21 23 1
23 21 24 1
24 24 25 1
25 24 26 1
26 24 27 1
27 26 35 1
28 27 28 1
29 27 29 1
30 27 31 1
31 29 30 1
32 31 32 1
33 31 33 1
34 31 35 1
35 33 34 1
36 35 36 1
37 35 37 1
38 37 38 1
39 37 50 1
40 38 39 1
41 38 40 2
42 40 41 1
43 41 42 ar
44 41 50 ar
45 42 43 1
46 42 46 ar
47 43 44 1
48 43 45 1
49 46 47 ar
50 47 48 1
51 47 49 ar
52 49 50 ar
@<TRIPOS>SUBSTRUCTURE
1	UNK0	1	GROUP	1 ****	UNK
