SAM.****
  PyMOL2.4          3D                             0

 50 52  0  0  0  0  0  0  0  0999 V2000
   -7.4032   -1.0382   -1.1865 N   0  3  0  1  0  0  0  0  0  0  0  0
   -8.2738   -1.5670   -0.9319 H   0  0  0  1  0  0  0  0  0  0  0  0
   -7.1474   -1.2450   -2.1837 H   0  0  0  1  0  0  0  0  0  0  0  0
   -7.5743   -0.0082   -1.0750 H   0  0  0  1  0  0  0  0  0  0  0  0
   -6.2880   -1.4558   -0.2913 C   0  0  0  1  0  0  0  0  0  0  0  0
   -6.0729   -2.4929   -0.4431 H   0  0  0  1  0  0  0  0  0  0  0  0
   -6.7176   -1.2458    1.1199 C   0  0  0  1  0  0  0  0  0  0  0  0
   -6.0274   -2.0220    1.9978 O   0  5  0  1  0  0  0  0  0  0  0  0
   -7.5963   -0.4560    1.4242 O   0  0  0  1  0  0  0  0  0  0  0  0
   -5.0498   -0.6396   -0.6090 C   0  0  0  1  0  0  0  0  0  0  0  0
   -5.2528    0.3865   -0.3835 H   0  0  0  1  0  0  0  0  0  0  0  0
   -4.8356   -0.7403   -1.6525 H   0  0  0  1  0  0  0  0  0  0  0  0
   -3.8560   -1.0615    0.1581 C   0  0  0  1  0  0  0  0  0  0  0  0
   -3.7041   -2.1068   -0.0124 H   0  0  0  1  0  0  0  0  0  0  0  0
   -4.0522   -0.8938    1.1965 H   0  0  0  1  0  0  0  0  0  0  0  0
   -2.3420   -0.2032   -0.2672 S   0  3  0  1  0  0  0  0  0  0  0  0
   -1.9317   -0.7913   -1.9104 C   0  0  0  1  0  0  0  0  0  0  0  0
   -2.6573   -0.4320   -2.6099 H   0  0  0  1  0  0  0  0  0  0  0  0
   -1.9305   -1.8613   -1.9161 H   0  0  0  1  0  0  0  0  0  0  0  0
   -0.9624   -0.4315   -2.1860 H   0  0  0  1  0  0  0  0  0  0  0  0
   -1.3783   -1.4736    0.5983 C   0  0  0  1  0  0  0  0  0  0  0  0
   -1.9579   -2.3708    0.6605 H   0  0  0  1  0  0  0  0  0  0  0  0
   -1.1488   -1.1275    1.5845 H   0  0  0  1  0  0  0  0  0  0  0  0
   -0.0866   -1.7681   -0.1364 C   0  0  0  1  0  0  0  0  0  0  0  0
   -0.3030   -2.2957   -1.0418 H   0  0  0  1  0  0  0  0  0  0  0  0
    0.5994   -0.5406   -0.4353 O   0  0  0  1  0  0  0  0  0  0  0  0
    0.8456   -2.6118    0.7548 C   0  0  0  1  0  0  0  0  0  0  0  0
    0.4057   -2.7765    1.7161 H   0  0  0  1  0  0  0  0  0  0  0  0
    1.1339   -3.8687    0.1406 O   0  0  0  1  0  0  0  0  0  0  0  0
    2.0613   -4.0821    0.2674 H   0  0  0  1  0  0  0  0  0  0  0  0
    2.1307   -1.7503    0.8770 C   0  0  0  1  0  0  0  0  0  0  0  0
    2.1378   -1.1905    1.7888 H   0  0  0  1  0  0  0  0  0  0  0  0
    3.3058   -2.5590    0.8048 O   0  0  0  1  0  0  0  0  0  0  0  0
    3.1792   -3.3554    1.3257 H   0  0  0  1  0  0  0  0  0  0  0  0
    2.0134   -0.8171   -0.3552 C   0  0  0  1  0  0  0  0  0  0  0  0
    2.3575   -1.3086   -1.2412 H   0  0  0  1  0  0  0  0  0  0  0  0
    2.7757    0.4140   -0.1526 N   0  0  0  1  0  0  0  0  0  0  0  0
    3.6765    1.0155   -0.9769 C   0  0  0  1  0  0  0  0  0  0  0  0
    3.9252    0.6297   -1.9101 H   0  0  0  1  0  0  0  0  0  0  0  0
    4.2046    2.1132   -0.5079 N   0  0  0  1  0  0  0  0  0  0  0  0
    3.5989    2.2617    0.7301 C   0  0  0  1  0  0  0  0  0  0  0  0
    3.7027    3.1974    1.7551 C   0  0  0  1  0  0  0  0  0  0  0  0
    4.5551    4.2640    1.6436 N   0  0  0  1  0  0  0  0  0  0  0  0
    5.0861    4.3839    0.8287 H   0  0  0  1  0  0  0  0  0  0  0  0
    4.6340    4.9072    2.3788 H   0  0  0  1  0  0  0  0  0  0  0  0
    2.9632    3.0547    2.8604 N   0  0  0  1  0  0  0  0  0  0  0  0
    2.1498    1.9899    2.9404 C   0  0  0  1  0  0  0  0  0  0  0  0
    1.5951    1.9124    3.8166 H   0  0  0  1  0  0  0  0  0  0  0  0
    1.9580    1.0223    2.0521 N   0  0  0  1  0  0  0  0  0  0  0  0
    2.7044    1.2084    0.9625 C   0  0  0  1  0  0  0  0  0  0  0  0
  1  2  1  0  0  0  0
  1  3  1  0  0  0  0
  1  4  1  0  0  0  0
  1  5  1  0  0  0  0
  5  6  1  0  0  0  0
  5  7  1  0  0  0  0
  5 10  1  0  0  0  0
  7  8  1  0  0  0  0
  7  9  2  0  0  0  0
 10 11  1  0  0  0  0
 10 12  1  0  0  0  0
 10 13  1  0  0  0  0
 13 14  1  0  0  0  0
 13 15  1  0  0  0  0
 13 16  1  0  0  0  0
 16 17  1  0  0  0  0
 16 21  1  0  0  0  0
 17 18  1  0  0  0  0
 17 19  1  0  0  0  0
 17 20  1  0  0  0  0
 21 22  1  0  0  0  0
 21 23  1  0  0  0  0
 21 24  1  0  0  0  0
 24 25  1  0  0  0  0
 24 26  1  0  0  0  0
 24 27  1  0  0  0  0
 26 35  1  0  0  0  0
 27 28  1  0  0  0  0
 27 29  1  0  0  0  0
 27 31  1  0  0  0  0
 29 30  1  0  0  0  0
 31 32  1  0  0  0  0
 31 33  1  0  0  0  0
 31 35  1  0  0  0  0
 33 34  1  0  0  0  0
 35 36  1  0  0  0  0
 35 37  1  0  0  0  0
 37 38  1  0  0  0  0
 37 50  1  0  0  0  0
 38 39  1  0  0  0  0
 38 40  2  0  0  0  0
 40 41  1  0  0  0  0
 41 42  1  0  0  0  0
 41 50  2  0  0  0  0
 42 43  1  0  0  0  0
 42 46  2  0  0  0  0
 43 44  1  0  0  0  0
 43 45  1  0  0  0  0
 46 47  1  0  0  0  0
 47 48  1  0  0  0  0
 47 49  2  0  0  0  0
 49 50  1  0  0  0  0
M  END
> <ConfClashScore>
0 

> <ConfOneFourInteractionScore>
-0.965276 

> <ConfScore>
-0.0778761 

> <ConfScorePBest>
0.0150985 

> <ConfTolerance>
1.07565 

$$$$
SAM.****
  PyMOL2.4          3D                             0

 50 52  0  0  0  0  0  0  0  0999 V2000
   -4.1382    2.1270   -2.1261 N   0  3  0  1  0  0  0  0  0  0  0  0
   -3.1250    2.2610   -2.3671 H   0  0  0  1  0  0  0  0  0  0  0  0
   -4.6167    3.0610   -2.0950 H   0  0  0  1  0  0  0  0  0  0  0  0
   -4.5941    1.5237   -2.8546 H   0  0  0  1  0  0  0  0  0  0  0  0
   -4.2497    1.4676   -0.7949 C   0  0  0  1  0  0  0  0  0  0  0  0
   -5.2813    1.3475   -0.5374 H   0  0  0  1  0  0  0  0  0  0  0  0
   -3.5907    2.3412    0.2163 C   0  0  0  1  0  0  0  0  0  0  0  0
   -4.0819    2.2530    1.4814 O   0  5  0  1  0  0  0  0  0  0  0  0
   -2.6703    3.0841   -0.0826 O   0  0  0  1  0  0  0  0  0  0  0  0
   -3.5866    0.0998   -0.8476 C   0  0  0  1  0  0  0  0  0  0  0  0
   -2.5341    0.2256   -0.9933 H   0  0  0  1  0  0  0  0  0  0  0  0
   -3.9961   -0.4574   -1.6642 H   0  0  0  1  0  0  0  0  0  0  0  0
   -3.8228   -0.6628    0.4435 C   0  0  0  1  0  0  0  0  0  0  0  0
   -4.8674   -0.8641    0.5584 H   0  0  0  1  0  0  0  0  0  0  0  0
   -3.4773   -0.0833    1.2739 H   0  0  0  1  0  0  0  0  0  0  0  0
   -2.9094   -2.2144    0.3618 S   0  3  0  1  0  0  0  0  0  0  0  0
   -2.6356   -2.6686    2.0671 C   0  0  0  1  0  0  0  0  0  0  0  0
   -2.1675   -1.8561    2.5824 H   0  0  0  1  0  0  0  0  0  0  0  0
   -2.0019   -3.5297    2.1093 H   0  0  0  1  0  0  0  0  0  0  0  0
   -3.5733   -2.8922    2.5314 H   0  0  0  1  0  0  0  0  0  0  0  0
   -1.3626   -1.6526   -0.1574 C   0  0  0  1  0  0  0  0  0  0  0  0
   -1.2642   -0.7975    0.4782 H   0  0  0  1  0  0  0  0  0  0  0  0
   -1.6147   -1.3347   -1.1474 H   0  0  0  1  0  0  0  0  0  0  0  0
    0.1025   -1.9767   -0.3662 C   0  0  0  1  0  0  0  0  0  0  0  0
    0.1968   -2.7421   -1.1079 H   0  0  0  1  0  0  0  0  0  0  0  0
    0.8123   -0.8204   -0.7577 O   0  0  0  1  0  0  0  0  0  0  0  0
    0.7382   -2.4214    0.9385 C   0  0  0  1  0  0  0  0  0  0  0  0
    0.3049   -1.9120    1.7737 H   0  0  0  1  0  0  0  0  0  0  0  0
    0.6099   -3.8321    1.1215 O   0  0  0  1  0  0  0  0  0  0  0  0
    1.4409   -4.2605    0.9035 H   0  0  0  1  0  0  0  0  0  0  0  0
    2.1795   -2.0254    0.7461 C   0  0  0  1  0  0  0  0  0  0  0  0
    2.6801   -1.9058    1.6842 H   0  0  0  1  0  0  0  0  0  0  0  0
    2.8719   -2.9692   -0.0400 O   0  0  0  1  0  0  0  0  0  0  0  0
    3.7698   -2.6644   -0.1899 H   0  0  0  1  0  0  0  0  0  0  0  0
    2.0357   -0.6904    0.0167 C   0  0  0  1  0  0  0  0  0  0  0  0
    2.8731   -0.5208   -0.6274 H   0  0  0  1  0  0  0  0  0  0  0  0
    1.9250    0.4098    0.9732 N   0  0  0  1  0  0  0  0  0  0  0  0
    1.3744    0.3639    2.2172 C   0  0  0  1  0  0  0  0  0  0  0  0
    0.9696   -0.5063    2.6178 H   0  0  0  1  0  0  0  0  0  0  0  0
    1.3926    1.4945    2.8694 N   0  0  0  1  0  0  0  0  0  0  0  0
    2.0158    2.3664    1.9903 C   0  0  0  1  0  0  0  0  0  0  0  0
    2.3492    3.7169    2.0360 C   0  0  0  1  0  0  0  0  0  0  0  0
    2.0798    4.5171    3.1149 N   0  0  0  1  0  0  0  0  0  0  0  0
    1.6024    4.1519    3.8888 H   0  0  0  1  0  0  0  0  0  0  0  0
    2.3645    5.4549    3.1126 H   0  0  0  1  0  0  0  0  0  0  0  0
    2.9618    4.2843    0.9913 N   0  0  0  1  0  0  0  0  0  0  0  0
    3.2202    3.5172   -0.0795 C   0  0  0  1  0  0  0  0  0  0  0  0
    3.6934    3.9960   -0.8722 H   0  0  0  1  0  0  0  0  0  0  0  0
    2.9533    2.2300   -0.2634 N   0  0  0  1  0  0  0  0  0  0  0  0
    2.3539    1.7010    0.8043 C   0  0  0  1  0  0  0  0  0  0  0  0
  1  2  1  0  0  0  0
  1  3  1  0  0  0  0
  1  4  1  0  0  0  0
  1  5  1  0  0  0  0
  5  6  1  0  0  0  0
  5  7  1  0  0  0  0
  5 10  1  0  0  0  0
  7  8  1  0  0  0  0
  7  9  2  0  0  0  0
 10 11  1  0  0  0  0
 10 12  1  0  0  0  0
 10 13  1  0  0  0  0
 13 14  1  0  0  0  0
 13 15  1  0  0  0  0
 13 16  1  0  0  0  0
 16 17  1  0  0  0  0
 16 21  1  0  0  0  0
 17 18  1  0  0  0  0
 17 19  1  0  0  0  0
 17 20  1  0  0  0  0
 21 22  1  0  0  0  0
 21 23  1  0  0  0  0
 21 24  1  0  0  0  0
 24 25  1  0  0  0  0
 24 26  1  0  0  0  0
 24 27  1  0  0  0  0
 26 35  1  0  0  0  0
 27 28  1  0  0  0  0
 27 29  1  0  0  0  0
 27 31  1  0  0  0  0
 29 30  1  0  0  0  0
 31 32  1  0  0  0  0
 31 33  1  0  0  0  0
 31 35  1  0  0  0  0
 33 34  1  0  0  0  0
 35 36  1  0  0  0  0
 35 37  1  0  0  0  0
 37 38  1  0  0  0  0
 37 50  1  0  0  0  0
 38 39  1  0  0  0  0
 38 40  2  0  0  0  0
 40 41  1  0  0  0  0
 41 42  1  0  0  0  0
 41 50  2  0  0  0  0
 42 43  1  0  0  0  0
 42 46  2  0  0  0  0
 43 44  1  0  0  0  0
 43 45  1  0  0  0  0
 46 47  1  0  0  0  0
 47 48  1  0  0  0  0
 47 49  2  0  0  0  0
 49 50  1  0  0  0  0
M  END
> <ConfClashScore>
0 

> <ConfOneFourInteractionScore>
-0.96848 

> <ConfScore>
-0.0760105 

> <ConfScorePBest>
0.0149955 

> <ConfTolerance>
1.18106 

$$$$
SAM.****
  PyMOL2.4          3D                             0

 50 52  0  0  0  0  0  0  0  0999 V2000
   -6.1956   -5.4128   -1.3393 N   0  3  0  1  0  0  0  0  0  0  0  0
   -6.7686   -4.5428   -1.4709 H   0  0  0  1  0  0  0  0  0  0  0  0
   -6.7639   -6.1317   -0.8267 H   0  0  0  1  0  0  0  0  0  0  0  0
   -5.9148   -5.7918   -2.2774 H   0  0  0  1  0  0  0  0  0  0  0  0
   -4.9760   -5.0899   -0.5499 C   0  0  0  1  0  0  0  0  0  0  0  0
   -4.3268   -5.9399   -0.5218 H   0  0  0  1  0  0  0  0  0  0  0  0
   -5.3764   -4.7315    0.8398 C   0  0  0  1  0  0  0  0  0  0  0  0
   -4.5013   -5.0579    1.8284 O   0  5  0  1  0  0  0  0  0  0  0  0
   -6.4480   -4.1746    1.0134 O   0  0  0  1  0  0  0  0  0  0  0  0
   -4.2343   -3.9154   -1.1585 C   0  0  0  1  0  0  0  0  0  0  0  0
   -4.8899   -3.0698   -1.1712 H   0  0  0  1  0  0  0  0  0  0  0  0
   -3.9602   -4.1699   -2.1610 H   0  0  0  1  0  0  0  0  0  0  0  0
   -2.9914   -3.5423   -0.4057 C   0  0  0  1  0  0  0  0  0  0  0  0
   -2.5872   -2.8185   -1.0822 H   0  0  0  1  0  0  0  0  0  0  0  0
   -2.4485   -4.4597   -0.4979 H   0  0  0  1  0  0  0  0  0  0  0  0
   -2.2864   -2.9364    1.1287 S   0  3  0  1  0  0  0  0  0  0  0  0
   -3.6837   -2.2002    1.9837 C   0  0  0  1  0  0  0  0  0  0  0  0
   -4.5071   -2.8835    1.9768 H   0  0  0  1  0  0  0  0  0  0  0  0
   -3.9677   -1.2950    1.4889 H   0  0  0  1  0  0  0  0  0  0  0  0
   -3.4089   -1.9834    2.9948 H   0  0  0  1  0  0  0  0  0  0  0  0
   -1.3682   -1.4476    0.6467 C   0  0  0  1  0  0  0  0  0  0  0  0
   -1.1147   -0.8929    1.5259 H   0  0  0  1  0  0  0  0  0  0  0  0
   -1.9843   -0.8470    0.0107 H   0  0  0  1  0  0  0  0  0  0  0  0
   -0.1012   -1.8097   -0.0914 C   0  0  0  1  0  0  0  0  0  0  0  0
   -0.3466   -2.3738   -0.9669 H   0  0  0  1  0  0  0  0  0  0  0  0
    0.6110   -0.6165   -0.4595 O   0  0  0  1  0  0  0  0  0  0  0  0
    0.8242   -2.6347    0.8242 C   0  0  0  1  0  0  0  0  0  0  0  0
    0.3967   -2.7419    1.7992 H   0  0  0  1  0  0  0  0  0  0  0  0
    1.0694   -3.9265    0.2664 O   0  0  0  1  0  0  0  0  0  0  0  0
    1.7416   -3.8587   -0.4157 H   0  0  0  1  0  0  0  0  0  0  0  0
    2.1329   -1.8028    0.8846 C   0  0  0  1  0  0  0  0  0  0  0  0
    2.1701   -1.2008    1.7684 H   0  0  0  1  0  0  0  0  0  0  0  0
    3.2860   -2.6454    0.8325 O   0  0  0  1  0  0  0  0  0  0  0  0
    3.5932   -2.8236    1.7244 H   0  0  0  1  0  0  0  0  0  0  0  0
    2.0185   -0.9263   -0.3888 C   0  0  0  1  0  0  0  0  0  0  0  0
    2.3347   -1.4682   -1.2556 H   0  0  0  1  0  0  0  0  0  0  0  0
    2.8158    0.2924   -0.2575 N   0  0  0  1  0  0  0  0  0  0  0  0
    3.4831    0.9424   -1.2500 C   0  0  0  1  0  0  0  0  0  0  0  0
    3.6262    0.5270   -2.1927 H   0  0  0  1  0  0  0  0  0  0  0  0
    3.9301    2.1261   -0.9295 N   0  0  0  1  0  0  0  0  0  0  0  0
    3.5189    2.2834    0.3850 C   0  0  0  1  0  0  0  0  0  0  0  0
    3.6625    3.2927    1.3324 C   0  0  0  1  0  0  0  0  0  0  0  0
    4.3233    4.5005    1.1364 N   0  0  0  1  0  0  0  0  0  0  0  0
    4.8143    4.6609    0.3035 H   0  0  0  1  0  0  0  0  0  0  0  0
    4.2979    5.1913    1.8310 H   0  0  0  1  0  0  0  0  0  0  0  0
    3.1376    3.1362    2.5526 N   0  0  0  1  0  0  0  0  0  0  0  0
    2.4965    1.9874    2.8193 C   0  0  0  1  0  0  0  0  0  0  0  0
    2.1064    1.9025    3.7797 H   0  0  0  1  0  0  0  0  0  0  0  0
    2.2931    0.9451    2.0229 N   0  0  0  1  0  0  0  0  0  0  0  0
    2.8216    1.1465    0.8150 C   0  0  0  1  0  0  0  0  0  0  0  0
  1  2  1  0  0  0  0
  1  3  1  0  0  0  0
  1  4  1  0  0  0  0
  1  5  1  0  0  0  0
  5  6  1  0  0  0  0
  5  7  1  0  0  0  0
  5 10  1  0  0  0  0
  7  8  1  0  0  0  0
  7  9  2  0  0  0  0
 10 11  1  0  0  0  0
 10 12  1  0  0  0  0
 10 13  1  0  0  0  0
 13 14  1  0  0  0  0
 13 15  1  0  0  0  0
 13 16  1  0  0  0  0
 16 17  1  0  0  0  0
 16 21  1  0  0  0  0
 17 18  1  0  0  0  0
 17 19  1  0  0  0  0
 17 20  1  0  0  0  0
 21 22  1  0  0  0  0
 21 23  1  0  0  0  0
 21 24  1  0  0  0  0
 24 25  1  0  0  0  0
 24 26  1  0  0  0  0
 24 27  1  0  0  0  0
 26 35  1  0  0  0  0
 27 28  1  0  0  0  0
 27 29  1  0  0  0  0
 27 31  1  0  0  0  0
 29 30  1  0  0  0  0
 31 32  1  0  0  0  0
 31 33  1  0  0  0  0
 31 35  1  0  0  0  0
 33 34  1  0  0  0  0
 35 36  1  0  0  0  0
 35 37  1  0  0  0  0
 37 38  1  0  0  0  0
 37 50  1  0  0  0  0
 38 39  1  0  0  0  0
 38 40  2  0  0  0  0
 40 41  1  0  0  0  0
 41 42  1  0  0  0  0
 41 50  2  0  0  0  0
 42 43  1  0  0  0  0
 42 46  2  0  0  0  0
 43 44  1  0  0  0  0
 43 45  1  0  0  0  0
 46 47  1  0  0  0  0
 47 48  1  0  0  0  0
 47 49  2  0  0  0  0
 49 50  1  0  0  0  0
M  END
> <ConfClashScore>
0 

> <ConfOneFourInteractionScore>
-0.984131 

> <ConfScore>
-0.0701221 

> <ConfScorePBest>
0.0148925 

> <ConfTolerance>
1.14453 

$$$$
SAM.****
  PyMOL2.4          3D                             0

 50 52  0  0  0  0  0  0  0  0999 V2000
   -6.5942    1.6449   -0.8850 N   0  3  0  1  0  0  0  0  0  0  0  0
   -5.9231    2.4523   -0.8707 H   0  0  0  1  0  0  0  0  0  0  0  0
   -7.4078    1.8551   -0.2554 H   0  0  0  1  0  0  0  0  0  0  0  0
   -6.9392    1.4942   -1.8651 H   0  0  0  1  0  0  0  0  0  0  0  0
   -5.9030    0.4160   -0.4083 C   0  0  0  1  0  0  0  0  0  0  0  0
   -6.5349   -0.4353   -0.5531 H   0  0  0  1  0  0  0  0  0  0  0  0
   -5.6735    0.6161    1.0502 C   0  0  0  1  0  0  0  0  0  0  0  0
   -5.4152   -0.4994    1.7841 O   0  5  0  1  0  0  0  0  0  0  0  0
   -5.7284    1.7489    1.4998 O   0  0  0  1  0  0  0  0  0  0  0  0
   -4.5936    0.2075   -1.1639 C   0  0  0  1  0  0  0  0  0  0  0  0
   -3.9901    1.0831   -1.0449 H   0  0  0  1  0  0  0  0  0  0  0  0
   -4.8187    0.0670   -2.2004 H   0  0  0  1  0  0  0  0  0  0  0  0
   -3.8013   -0.9934   -0.6759 C   0  0  0  1  0  0  0  0  0  0  0  0
   -4.3382   -1.8837   -0.9290 H   0  0  0  1  0  0  0  0  0  0  0  0
   -3.6997   -0.9277    0.3872 H   0  0  0  1  0  0  0  0  0  0  0  0
   -2.1677   -1.0828   -1.4035 S   0  3  0  1  0  0  0  0  0  0  0  0
   -2.2989   -2.5264   -2.4467 C   0  0  0  1  0  0  0  0  0  0  0  0
   -3.0336   -3.1922   -2.0445 H   0  0  0  1  0  0  0  0  0  0  0  0
   -1.3522   -3.0233   -2.4881 H   0  0  0  1  0  0  0  0  0  0  0  0
   -2.5894   -2.2285   -3.4325 H   0  0  0  1  0  0  0  0  0  0  0  0
   -1.2538   -1.7512    0.0142 C   0  0  0  1  0  0  0  0  0  0  0  0
   -1.7302   -2.6502    0.3454 H   0  0  0  1  0  0  0  0  0  0  0  0
   -1.2600   -1.0311    0.8056 H   0  0  0  1  0  0  0  0  0  0  0  0
    0.1776   -2.0599   -0.3622 C   0  0  0  1  0  0  0  0  0  0  0  0
    0.1933   -2.8274   -1.1076 H   0  0  0  1  0  0  0  0  0  0  0  0
    0.8432   -0.8708   -0.8441 O   0  0  0  1  0  0  0  0  0  0  0  0
    0.9765   -2.4918    0.8711 C   0  0  0  1  0  0  0  0  0  0  0  0
    0.5241   -2.1258    1.7690 H   0  0  0  1  0  0  0  0  0  0  0  0
    1.0863   -3.9143    0.9381 O   0  0  0  1  0  0  0  0  0  0  0  0
    0.2145   -4.2976    1.0590 H   0  0  0  1  0  0  0  0  0  0  0  0
    2.3234   -1.8560    0.6468 C   0  0  0  1  0  0  0  0  0  0  0  0
    2.8198   -1.6662    1.5755 H   0  0  0  1  0  0  0  0  0  0  0  0
    3.1512   -2.6797   -0.1769 O   0  0  0  1  0  0  0  0  0  0  0  0
    3.7541   -3.1823    0.3757 H   0  0  0  1  0  0  0  0  0  0  0  0
    1.9629   -0.5448   -0.0663 C   0  0  0  1  0  0  0  0  0  0  0  0
    2.7712   -0.2151   -0.6850 H   0  0  0  1  0  0  0  0  0  0  0  0
    1.6336    0.4988    0.9037 N   0  0  0  1  0  0  0  0  0  0  0  0
    0.9734    0.3960    2.0896 C   0  0  0  1  0  0  0  0  0  0  0  0
    0.6157   -0.5101    2.4537 H   0  0  0  1  0  0  0  0  0  0  0  0
    0.8231    1.5204    2.7353 N   0  0  0  1  0  0  0  0  0  0  0  0
    1.4428    2.4508    1.9157 C   0  0  0  1  0  0  0  0  0  0  0  0
    1.6422    3.8264    1.9868 C   0  0  0  1  0  0  0  0  0  0  0  0
    1.1988    4.5900    3.0270 N   0  0  0  1  0  0  0  0  0  0  0  0
    1.3108    5.5633    3.0030 H   0  0  0  1  0  0  0  0  0  0  0  0
    0.7684    4.1652    3.7982 H   0  0  0  1  0  0  0  0  0  0  0  0
    2.2958    4.4534    1.0027 N   0  0  0  1  0  0  0  0  0  0  0  0
    2.7261    3.7186   -0.0350 C   0  0  0  1  0  0  0  0  0  0  0  0
    3.2258    4.2432   -0.7811 H   0  0  0  1  0  0  0  0  0  0  0  0
    2.5999    2.4128   -0.2375 N   0  0  0  1  0  0  0  0  0  0  0  0
    1.9536    1.8253    0.7704 C   0  0  0  1  0  0  0  0  0  0  0  0
  1  2  1  0  0  0  0
  1  3  1  0  0  0  0
  1  4  1  0  0  0  0
  1  5  1  0  0  0  0
  5  6  1  0  0  0  0
  5  7  1  0  0  0  0
  5 10  1  0  0  0  0
  7  8  1  0  0  0  0
  7  9  2  0  0  0  0
 10 11  1  0  0  0  0
 10 12  1  0  0  0  0
 10 13  1  0  0  0  0
 13 14  1  0  0  0  0
 13 15  1  0  0  0  0
 13 16  1  0  0  0  0
 16 17  1  0  0  0  0
 16 21  1  0  0  0  0
 17 18  1  0  0  0  0
 17 19  1  0  0  0  0
 17 20  1  0  0  0  0
 21 22  1  0  0  0  0
 21 23  1  0  0  0  0
 21 24  1  0  0  0  0
 24 25  1  0  0  0  0
 24 26  1  0  0  0  0
 24 27  1  0  0  0  0
 26 35  1  0  0  0  0
 27 28  1  0  0  0  0
 27 29  1  0  0  0  0
 27 31  1  0  0  0  0
 29 30  1  0  0  0  0
 31 32  1  0  0  0  0
 31 33  1  0  0  0  0
 31 35  1  0  0  0  0
 33 34  1  0  0  0  0
 35 36  1  0  0  0  0
 35 37  1  0  0  0  0
 37 38  1  0  0  0  0
 37 50  1  0  0  0  0
 38 39  1  0  0  0  0
 38 40  2  0  0  0  0
 40 41  1  0  0  0  0
 41 42  1  0  0  0  0
 41 50  2  0  0  0  0
 42 43  1  0  0  0  0
 42 46  2  0  0  0  0
 43 44  1  0  0  0  0
 43 45  1  0  0  0  0
 46 47  1  0  0  0  0
 47 48  1  0  0  0  0
 47 49  2  0  0  0  0
 49 50  1  0  0  0  0
M  END
> <ConfClashScore>
0 

> <ConfOneFourInteractionScore>
-0.986101 

> <ConfScore>
-0.0696829 

> <ConfScorePBest>
0.0147895 

> <ConfTolerance>
1.22101 

$$$$
SAM.****
  PyMOL2.4          3D                             0

 50 52  0  0  0  0  0  0  0  0999 V2000
   -2.4412    2.5574    3.5306 N   0  3  0  1  0  0  0  0  0  0  0  0
   -1.5877    2.8040    2.9710 H   0  0  0  1  0  0  0  0  0  0  0  0
   -2.1569    2.0050    4.3771 H   0  0  0  1  0  0  0  0  0  0  0  0
   -2.9272    3.4376    3.8335 H   0  0  0  1  0  0  0  0  0  0  0  0
   -3.3659    1.7429    2.6942 C   0  0  0  1  0  0  0  0  0  0  0  0
   -3.4782    2.1985    1.7326 H   0  0  0  1  0  0  0  0  0  0  0  0
   -4.6918    1.6968    3.3724 C   0  0  0  1  0  0  0  0  0  0  0  0
   -5.5728    0.7632    2.9233 O   0  5  0  1  0  0  0  0  0  0  0  0
   -4.9122    2.4846    4.2776 O   0  0  0  1  0  0  0  0  0  0  0  0
   -2.7966    0.3481    2.5200 C   0  0  0  1  0  0  0  0  0  0  0  0
   -2.7219   -0.1107    3.4838 H   0  0  0  1  0  0  0  0  0  0  0  0
   -1.8214    0.4313    2.0875 H   0  0  0  1  0  0  0  0  0  0  0  0
   -3.6450   -0.5417    1.6276 C   0  0  0  1  0  0  0  0  0  0  0  0
   -3.8667   -0.0104    0.7256 H   0  0  0  1  0  0  0  0  0  0  0  0
   -4.5559   -0.7716    2.1397 H   0  0  0  1  0  0  0  0  0  0  0  0
   -2.8236   -2.0747    1.2026 S   0  3  0  1  0  0  0  0  0  0  0  0
   -2.1344   -2.6614    2.7470 C   0  0  0  1  0  0  0  0  0  0  0  0
   -1.6494   -3.6017    2.5873 H   0  0  0  1  0  0  0  0  0  0  0  0
   -2.9190   -2.7824    3.4643 H   0  0  0  1  0  0  0  0  0  0  0  0
   -1.4227   -1.9508    3.1125 H   0  0  0  1  0  0  0  0  0  0  0  0
   -1.3776   -1.5157    0.4449 C   0  0  0  1  0  0  0  0  0  0  0  0
   -1.0719   -0.7871    1.1665 H   0  0  0  1  0  0  0  0  0  0  0  0
   -1.8037   -1.0215   -0.4031 H   0  0  0  1  0  0  0  0  0  0  0  0
   -0.0282   -1.8756   -0.1304 C   0  0  0  1  0  0  0  0  0  0  0  0
   -0.1618   -2.4767   -1.0054 H   0  0  0  1  0  0  0  0  0  0  0  0
    0.6991   -0.6806   -0.4618 O   0  0  0  1  0  0  0  0  0  0  0  0
    0.8019   -2.6452    0.9154 C   0  0  0  1  0  0  0  0  0  0  0  0
    0.2682   -2.7264    1.8393 H   0  0  0  1  0  0  0  0  0  0  0  0
    1.1330   -3.9506    0.4396 O   0  0  0  1  0  0  0  0  0  0  0  0
    1.2471   -3.9250   -0.5132 H   0  0  0  1  0  0  0  0  0  0  0  0
    2.0797   -1.7820    1.0911 C   0  0  0  1  0  0  0  0  0  0  0  0
    2.0047   -1.1474    1.9493 H   0  0  0  1  0  0  0  0  0  0  0  0
    3.2460   -2.5990    1.2026 O   0  0  0  1  0  0  0  0  0  0  0  0
    3.8019   -2.4710    0.4305 H   0  0  0  1  0  0  0  0  0  0  0  0
    2.0949   -0.9555   -0.2203 C   0  0  0  1  0  0  0  0  0  0  0  0
    2.5177   -1.5214   -1.0239 H   0  0  0  1  0  0  0  0  0  0  0  0
    2.8511    0.2880   -0.0467 N   0  0  0  1  0  0  0  0  0  0  0  0
    3.2012    0.9310    1.1008 C   0  0  0  1  0  0  0  0  0  0  0  0
    2.9512    0.5690    2.0432 H   0  0  0  1  0  0  0  0  0  0  0  0
    3.8742    2.0362    0.9294 N   0  0  0  1  0  0  0  0  0  0  0  0
    3.9909    2.1349   -0.4483 C   0  0  0  1  0  0  0  0  0  0  0  0
    4.5727    3.0610   -1.3090 C   0  0  0  1  0  0  0  0  0  0  0  0
    5.2210    4.1851   -0.8698 N   0  0  0  1  0  0  0  0  0  0  0  0
    5.6839    4.7653   -1.5097 H   0  0  0  1  0  0  0  0  0  0  0  0
    5.2218    4.4090    0.0843 H   0  0  0  1  0  0  0  0  0  0  0  0
    4.5101    2.8681   -2.6310 N   0  0  0  1  0  0  0  0  0  0  0  0
    3.8659    1.7786   -3.0783 C   0  0  0  1  0  0  0  0  0  0  0  0
    3.8356    1.6667   -4.1118 H   0  0  0  1  0  0  0  0  0  0  0  0
    3.2624    0.8249   -2.3796 N   0  0  0  1  0  0  0  0  0  0  0  0
    3.3577    1.0493   -1.0683 C   0  0  0  1  0  0  0  0  0  0  0  0
  1  2  1  0  0  0  0
  1  3  1  0  0  0  0
  1  4  1  0  0  0  0
  1  5  1  0  0  0  0
  5  6  1  0  0  0  0
  5  7  1  0  0  0  0
  5 10  1  0  0  0  0
  7  8  1  0  0  0  0
  7  9  2  0  0  0  0
 10 11  1  0  0  0  0
 10 12  1  0  0  0  0
 10 13  1  0  0  0  0
 13 14  1  0  0  0  0
 13 15  1  0  0  0  0
 13 16  1  0  0  0  0
 16 17  1  0  0  0  0
 16 21  1  0  0  0  0
 17 18  1  0  0  0  0
 17 19  1  0  0  0  0
 17 20  1  0  0  0  0
 21 22  1  0  0  0  0
 21 23  1  0  0  0  0
 21 24  1  0  0  0  0
 24 25  1  0  0  0  0
 24 26  1  0  0  0  0
 24 27  1  0  0  0  0
 26 35  1  0  0  0  0
 27 28  1  0  0  0  0
 27 29  1  0  0  0  0
 27 31  1  0  0  0  0
 29 30  1  0  0  0  0
 31 32  1  0  0  0  0
 31 33  1  0  0  0  0
 31 35  1  0  0  0  0
 33 34  1  0  0  0  0
 35 36  1  0  0  0  0
 35 37  1  0  0  0  0
 37 38  1  0  0  0  0
 37 50  1  0  0  0  0
 38 39  1  0  0  0  0
 38 40  2  0  0  0  0
 40 41  1  0  0  0  0
 41 42  1  0  0  0  0
 41 50  2  0  0  0  0
 42 43  1  0  0  0  0
 42 46  2  0  0  0  0
 43 44  1  0  0  0  0
 43 45  1  0  0  0  0
 46 47  1  0  0  0  0
 47 48  1  0  0  0  0
 47 49  2  0  0  0  0
 49 50  1  0  0  0  0
M  END
> <ConfClashScore>
0 

> <ConfOneFourInteractionScore>
-0.984131 

> <ConfScore>
-0.0664025 

> <ConfScorePBest>
0.0146865 

> <ConfTolerance>
1.11521 

$$$$
SAM.****
  PyMOL2.4          3D                             0

 50 52  0  0  0  0  0  0  0  0999 V2000
   -5.8739   -2.0573    1.4075 N   0  3  0  1  0  0  0  0  0  0  0  0
   -5.2199   -2.2376    2.2089 H   0  0  0  1  0  0  0  0  0  0  0  0
   -6.8643   -2.2007    1.7253 H   0  0  0  1  0  0  0  0  0  0  0  0
   -5.7528   -1.0695    1.0727 H   0  0  0  1  0  0  0  0  0  0  0  0
   -5.5684   -2.9994    0.2948 C   0  0  0  1  0  0  0  0  0  0  0  0
   -6.2837   -2.8485   -0.4865 H   0  0  0  1  0  0  0  0  0  0  0  0
   -5.6796   -4.4095    0.7630 C   0  0  0  1  0  0  0  0  0  0  0  0
   -5.8982   -5.3313   -0.2128 O   0  5  0  1  0  0  0  0  0  0  0  0
   -5.5855   -4.7432    1.9327 O   0  0  0  1  0  0  0  0  0  0  0  0
   -4.1869   -2.6838   -0.2578 C   0  0  0  1  0  0  0  0  0  0  0  0
   -3.9747   -3.3461   -1.0710 H   0  0  0  1  0  0  0  0  0  0  0  0
   -3.4599   -2.8226    0.5149 H   0  0  0  1  0  0  0  0  0  0  0  0
   -4.1173   -1.1951   -0.7718 C   0  0  0  1  0  0  0  0  0  0  0  0
   -4.1937   -0.5048    0.0422 H   0  0  0  1  0  0  0  0  0  0  0  0
   -4.8938   -0.9981   -1.4812 H   0  0  0  1  0  0  0  0  0  0  0  0
   -2.5052   -1.0999   -1.5436 S   0  3  0  1  0  0  0  0  0  0  0  0
   -2.5653   -2.4444   -2.7328 C   0  0  0  1  0  0  0  0  0  0  0  0
   -2.2516   -2.0876   -3.6915 H   0  0  0  1  0  0  0  0  0  0  0  0
   -3.5665   -2.8156   -2.8007 H   0  0  0  1  0  0  0  0  0  0  0  0
   -1.9135   -3.2311   -2.4146 H   0  0  0  1  0  0  0  0  0  0  0  0
   -1.3856   -1.7974   -0.0344 C   0  0  0  1  0  0  0  0  0  0  0  0
   -1.7812   -2.7495    0.2520 H   0  0  0  1  0  0  0  0  0  0  0  0
   -1.4767   -1.1124    0.7826 H   0  0  0  1  0  0  0  0  0  0  0  0
    0.0862   -1.9782   -0.3213 C   0  0  0  1  0  0  0  0  0  0  0  0
    0.2127   -2.7106   -1.0910 H   0  0  0  1  0  0  0  0  0  0  0  0
    0.6729   -0.7606   -0.6931 O   0  0  0  1  0  0  0  0  0  0  0  0
    0.8418   -2.3897    0.9506 C   0  0  0  1  0  0  0  0  0  0  0  0
    0.4158   -1.9303    1.8180 H   0  0  0  1  0  0  0  0  0  0  0  0
    0.8411   -3.8103    1.1138 O   0  0  0  1  0  0  0  0  0  0  0  0
    1.6140   -4.1827    0.6831 H   0  0  0  1  0  0  0  0  0  0  0  0
    2.2327   -1.8737    0.6906 C   0  0  0  1  0  0  0  0  0  0  0  0
    2.7407   -1.6605    1.6079 H   0  0  0  1  0  0  0  0  0  0  0  0
    2.9946   -2.8141   -0.0691 O   0  0  0  1  0  0  0  0  0  0  0  0
    3.1919   -3.5804    0.4745 H   0  0  0  1  0  0  0  0  0  0  0  0
    1.9850   -0.5922   -0.1108 C   0  0  0  1  0  0  0  0  0  0  0  0
    2.7240   -0.4792   -0.8763 H   0  0  0  1  0  0  0  0  0  0  0  0
    2.0103    0.5759    0.7684 N   0  0  0  1  0  0  0  0  0  0  0  0
    2.0422    0.5828    2.1292 C   0  0  0  1  0  0  0  0  0  0  0  0
    1.9832   -0.2883    2.6943 H   0  0  0  1  0  0  0  0  0  0  0  0
    2.1524    1.7650    2.6715 N   0  0  0  1  0  0  0  0  0  0  0  0
    2.2075    2.6186    1.5806 C   0  0  0  1  0  0  0  0  0  0  0  0
    2.3130    3.9984    1.4326 C   0  0  0  1  0  0  0  0  0  0  0  0
    2.3947    4.8565    2.4904 N   0  0  0  1  0  0  0  0  0  0  0  0
    2.4805    5.8201    2.3341 H   0  0  0  1  0  0  0  0  0  0  0  0
    2.3676    4.5091    3.4063 H   0  0  0  1  0  0  0  0  0  0  0  0
    2.3375    4.5338    0.2073 N   0  0  0  1  0  0  0  0  0  0  0  0
    2.2437    3.7044   -0.8440 C   0  0  0  1  0  0  0  0  0  0  0  0
    2.2623    4.1595   -1.7790 H   0  0  0  1  0  0  0  0  0  0  0  0
    2.1304    2.3819   -0.8513 N   0  0  0  1  0  0  0  0  0  0  0  0
    2.1211    1.8884    0.3877 C   0  0  0  1  0  0  0  0  0  0  0  0
  1  2  1  0  0  0  0
  1  3  1  0  0  0  0
  1  4  1  0  0  0  0
  1  5  1  0  0  0  0
  5  6  1  0  0  0  0
  5  7  1  0  0  0  0
  5 10  1  0  0  0  0
  7  8  1  0  0  0  0
  7  9  2  0  0  0  0
 10 11  1  0  0  0  0
 10 12  1  0  0  0  0
 10 13  1  0  0  0  0
 13 14  1  0  0  0  0
 13 15  1  0  0  0  0
 13 16  1  0  0  0  0
 16 17  1  0  0  0  0
 16 21  1  0  0  0  0
 17 18  1  0  0  0  0
 17 19  1  0  0  0  0
 17 20  1  0  0  0  0
 21 22  1  0  0  0  0
 21 23  1  0  0  0  0
 21 24  1  0  0  0  0
 24 25  1  0  0  0  0
 24 26  1  0  0  0  0
 24 27  1  0  0  0  0
 26 35  1  0  0  0  0
 27 28  1  0  0  0  0
 27 29  1  0  0  0  0
 27 31  1  0  0  0  0
 29 30  1  0  0  0  0
 31 32  1  0  0  0  0
 31 33  1  0  0  0  0
 31 35  1  0  0  0  0
 33 34  1  0  0  0  0
 35 36  1  0  0  0  0
 35 37  1  0  0  0  0
 37 38  1  0  0  0  0
 37 50  1  0  0  0  0
 38 39  1  0  0  0  0
 38 40  2  0  0  0  0
 40 41  1  0  0  0  0
 41 42  1  0  0  0  0
 41 50  2  0  0  0  0
 42 43  1  0  0  0  0
 42 46  2  0  0  0  0
 43 44  1  0  0  0  0
 43 45  1  0  0  0  0
 46 47  1  0  0  0  0
 47 48  1  0  0  0  0
 47 49  2  0  0  0  0
 49 50  1  0  0  0  0
M  END
> <ConfClashScore>
0 

> <ConfOneFourInteractionScore>
-0.952829 

> <ConfScore>
-0.0651225 

> <ConfScorePBest>
0.0145835 

> <ConfTolerance>
1.14342 

$$$$
SAM.****
  PyMOL2.4          3D                             0

 50 52  0  0  0  0  0  0  0  0999 V2000
   -4.5785   -6.4122    2.7255 N   0  3  0  1  0  0  0  0  0  0  0  0
   -5.4078   -5.8680    3.0700 H   0  0  0  1  0  0  0  0  0  0  0  0
   -3.9688   -6.6733    3.5394 H   0  0  0  1  0  0  0  0  0  0  0  0
   -4.9086   -7.2834    2.2411 H   0  0  0  1  0  0  0  0  0  0  0  0
   -3.7933   -5.5720    1.7623 C   0  0  0  1  0  0  0  0  0  0  0  0
   -4.4436   -5.2523    0.9750 H   0  0  0  1  0  0  0  0  0  0  0  0
   -2.6709   -6.3488    1.1649 C   0  0  0  1  0  0  0  0  0  0  0  0
   -2.4955   -6.0239   -0.1440 O   0  5  0  1  0  0  0  0  0  0  0  0
   -1.9718   -7.1756    1.7270 O   0  0  0  1  0  0  0  0  0  0  0  0
   -3.2321   -4.3406    2.4469 C   0  0  0  1  0  0  0  0  0  0  0  0
   -2.5724   -4.6574    3.2275 H   0  0  0  1  0  0  0  0  0  0  0  0
   -4.0447   -3.7869    2.8688 H   0  0  0  1  0  0  0  0  0  0  0  0
   -2.6090   -3.6002    1.6856 C   0  0  0  1  0  0  0  0  0  0  0  0
   -3.3136   -3.1552    1.0145 H   0  0  0  1  0  0  0  0  0  0  0  0
   -1.9219   -4.2056    1.1321 H   0  0  0  1  0  0  0  0  0  0  0  0
   -1.6795   -2.2833    2.4494 S   0  3  0  1  0  0  0  0  0  0  0  0
   -2.9888   -1.2564    3.0977 C   0  0  0  1  0  0  0  0  0  0  0  0
   -2.8079   -1.0586    4.1336 H   0  0  0  1  0  0  0  0  0  0  0  0
   -3.9254   -1.7626    2.9898 H   0  0  0  1  0  0  0  0  0  0  0  0
   -3.0178   -0.3328    2.5582 H   0  0  0  1  0  0  0  0  0  0  0  0
   -1.0941   -1.2235    0.8519 C   0  0  0  1  0  0  0  0  0  0  0  0
   -0.6771   -0.3039    1.2059 H   0  0  0  1  0  0  0  0  0  0  0  0
   -1.9623   -1.0180    0.2611 H   0  0  0  1  0  0  0  0  0  0  0  0
   -0.0711   -1.8770   -0.0459 C   0  0  0  1  0  0  0  0  0  0  0  0
   -0.5685   -2.4969   -0.7622 H   0  0  0  1  0  0  0  0  0  0  0  0
    0.7158   -0.8757   -0.7153 O   0  0  0  1  0  0  0  0  0  0  0  0
    0.9200   -2.7190    0.7951 C   0  0  0  1  0  0  0  0  0  0  0  0
    0.5120   -2.9464    1.7578 H   0  0  0  1  0  0  0  0  0  0  0  0
    1.2626   -3.9322    0.1238 O   0  0  0  1  0  0  0  0  0  0  0  0
    0.7908   -3.9809   -0.7109 H   0  0  0  1  0  0  0  0  0  0  0  0
    2.1240   -1.8013    0.9144 C   0  0  0  1  0  0  0  0  0  0  0  0
    2.0330   -1.1531    1.7609 H   0  0  0  1  0  0  0  0  0  0  0  0
    3.3368   -2.5519    1.0162 O   0  0  0  1  0  0  0  0  0  0  0  0
    3.8768   -2.1937    1.7244 H   0  0  0  1  0  0  0  0  0  0  0  0
    2.0720   -1.0070   -0.4003 C   0  0  0  1  0  0  0  0  0  0  0  0
    2.5844   -1.5372   -1.1757 H   0  0  0  1  0  0  0  0  0  0  0  0
    2.6836    0.3115   -0.2232 N   0  0  0  1  0  0  0  0  0  0  0  0
    3.7596    0.8081   -0.8927 C   0  0  0  1  0  0  0  0  0  0  0  0
    4.2123    0.2997   -1.6790 H   0  0  0  1  0  0  0  0  0  0  0  0
    4.1806    1.9704   -0.4736 N   0  0  0  1  0  0  0  0  0  0  0  0
    3.3065    2.2799    0.5568 C   0  0  0  1  0  0  0  0  0  0  0  0
    3.1834    3.3520    1.4357 C   0  0  0  1  0  0  0  0  0  0  0  0
    4.0056    4.4731    1.4669 N   0  0  0  1  0  0  0  0  0  0  0  0
    4.7183    4.5767    0.8023 H   0  0  0  1  0  0  0  0  0  0  0  0
    3.8723    5.1596    2.1535 H   0  0  0  1  0  0  0  0  0  0  0  0
    2.2058    3.3522    2.3484 N   0  0  0  1  0  0  0  0  0  0  0  0
    1.3806    2.2941    2.3871 C   0  0  0  1  0  0  0  0  0  0  0  0
    0.6367    2.3302    3.1130 H   0  0  0  1  0  0  0  0  0  0  0  0
    1.3859    1.2081    1.6239 N   0  0  0  1  0  0  0  0  0  0  0  0
    2.3672    1.2532    0.7218 C   0  0  0  1  0  0  0  0  0  0  0  0
  1  2  1  0  0  0  0
  1  3  1  0  0  0  0
  1  4  1  0  0  0  0
  1  5  1  0  0  0  0
  5  6  1  0  0  0  0
  5  7  1  0  0  0  0
  5 10  1  0  0  0  0
  7  8  1  0  0  0  0
  7  9  2  0  0  0  0
 10 11  1  0  0  0  0
 10 12  1  0  0  0  0
 10 13  1  0  0  0  0
 13 14  1  0  0  0  0
 13 15  1  0  0  0  0
 13 16  1  0  0  0  0
 16 17  1  0  0  0  0
 16 21  1  0  0  0  0
 17 18  1  0  0  0  0
 17 19  1  0  0  0  0
 17 20  1  0  0  0  0
 21 22  1  0  0  0  0
 21 23  1  0  0  0  0
 21 24  1  0  0  0  0
 24 25  1  0  0  0  0
 24 26  1  0  0  0  0
 24 27  1  0  0  0  0
 26 35  1  0  0  0  0
 27 28  1  0  0  0  0
 27 29  1  0  0  0  0
 27 31  1  0  0  0  0
 29 30  1  0  0  0  0
 31 32  1  0  0  0  0
 31 33  1  0  0  0  0
 31 35  1  0  0  0  0
 33 34  1  0  0  0  0
 35 36  1  0  0  0  0
 35 37  1  0  0  0  0
 37 38  1  0  0  0  0
 37 50  1  0  0  0  0
 38 39  1  0  0  0  0
 38 40  2  0  0  0  0
 40 41  1  0  0  0  0
 41 42  1  0  0  0  0
 41 50  2  0  0  0  0
 42 43  1  0  0  0  0
 42 46  2  0  0  0  0
 43 44  1  0  0  0  0
 43 45  1  0  0  0  0
 46 47  1  0  0  0  0
 47 48  1  0  0  0  0
 47 49  2  0  0  0  0
 49 50  1  0  0  0  0
M  END
> <ConfClashScore>
0 

> <ConfOneFourInteractionScore>
-0.986105 

> <ConfScore>
-0.0579522 

> <ConfScorePBest>
0.0144805 

> <ConfTolerance>
1.11562 

$$$$
SAM.****
  PyMOL2.4          3D                             0

 50 52  0  0  0  0  0  0  0  0999 V2000
    2.6564    0.8153    3.4491 N   0  3  0  1  0  0  0  0  0  0  0  0
    3.0606    0.3363    2.6066 H   0  0  0  1  0  0  0  0  0  0  0  0
    2.5907    0.1308    4.2426 H   0  0  0  1  0  0  0  0  0  0  0  0
    3.2763    1.6158    3.7273 H   0  0  0  1  0  0  0  0  0  0  0  0
    1.2968    1.3301    3.1239 C   0  0  0  1  0  0  0  0  0  0  0  0
    1.3699    2.1127    2.3978 H   0  0  0  1  0  0  0  0  0  0  0  0
    0.6702    1.8677    4.3643 C   0  0  0  1  0  0  0  0  0  0  0  0
   -0.1796    2.8946    4.0942 O   0  5  0  1  0  0  0  0  0  0  0  0
    0.8849    1.4470    5.4892 O   0  0  0  1  0  0  0  0  0  0  0  0
    0.4166    0.2227    2.5773 C   0  0  0  1  0  0  0  0  0  0  0  0
    0.4161   -0.5869    3.2770 H   0  0  0  1  0  0  0  0  0  0  0  0
    0.8278   -0.1095    1.6470 H   0  0  0  1  0  0  0  0  0  0  0  0
   -0.9835    0.6452    2.3474 C   0  0  0  1  0  0  0  0  0  0  0  0
   -0.9919    1.3363    1.5305 H   0  0  0  1  0  0  0  0  0  0  0  0
   -1.3323    1.1345    3.2327 H   0  0  0  1  0  0  0  0  0  0  0  0
   -2.1310   -0.6963    1.9589 S   0  3  0  1  0  0  0  0  0  0  0  0
   -1.6545   -1.8557    3.2368 C   0  0  0  1  0  0  0  0  0  0  0  0
   -0.6073   -2.0618    3.1596 H   0  0  0  1  0  0  0  0  0  0  0  0
   -2.2063   -2.7646    3.1172 H   0  0  0  1  0  0  0  0  0  0  0  0
   -1.8648   -1.4338    4.1973 H   0  0  0  1  0  0  0  0  0  0  0  0
   -1.3934   -1.3780    0.5557 C   0  0  0  1  0  0  0  0  0  0  0  0
   -1.7940   -0.7224   -0.1890 H   0  0  0  1  0  0  0  0  0  0  0  0
   -1.9105   -2.3142    0.5230 H   0  0  0  1  0  0  0  0  0  0  0  0
   -0.1189   -1.7770   -0.1278 C   0  0  0  1  0  0  0  0  0  0  0  0
   -0.3476   -2.3130   -1.0252 H   0  0  0  1  0  0  0  0  0  0  0  0
    0.6587   -0.6084   -0.4383 O   0  0  0  1  0  0  0  0  0  0  0  0
    0.7283   -2.6583    0.8105 C   0  0  0  1  0  0  0  0  0  0  0  0
    0.2527   -2.7660    1.7630 H   0  0  0  1  0  0  0  0  0  0  0  0
    0.9444   -3.9484    0.2370 O   0  0  0  1  0  0  0  0  0  0  0  0
    1.8197   -3.9819   -0.1560 H   0  0  0  1  0  0  0  0  0  0  0  0
    2.0667   -1.8846    0.9471 C   0  0  0  1  0  0  0  0  0  0  0  0
    2.0887   -1.3019    1.8442 H   0  0  0  1  0  0  0  0  0  0  0  0
    3.1844   -2.7744    0.9288 O   0  0  0  1  0  0  0  0  0  0  0  0
    3.9790   -2.2960    1.1764 H   0  0  0  1  0  0  0  0  0  0  0  0
    2.0474   -0.9795   -0.3113 C   0  0  0  1  0  0  0  0  0  0  0  0
    2.3797   -1.5177   -1.1744 H   0  0  0  1  0  0  0  0  0  0  0  0
    2.8881    0.2012   -0.1186 N   0  0  0  1  0  0  0  0  0  0  0  0
    2.4395    1.4862   -0.1381 C   0  0  0  1  0  0  0  0  0  0  0  0
    1.4390    1.7269   -0.2883 H   0  0  0  1  0  0  0  0  0  0  0  0
    3.3597    2.3935    0.0460 N   0  0  0  1  0  0  0  0  0  0  0  0
    4.5189    1.6514    0.2110 C   0  0  0  1  0  0  0  0  0  0  0  0
    5.8544    1.9742    0.4325 C   0  0  0  1  0  0  0  0  0  0  0  0
    6.3032    3.2639    0.5430 N   0  0  0  1  0  0  0  0  0  0  0  0
    5.6792    4.0112    0.4313 H   0  0  0  1  0  0  0  0  0  0  0  0
    7.2484    3.4391    0.7338 H   0  0  0  1  0  0  0  0  0  0  0  0
    6.7622    0.9987    0.5466 N   0  0  0  1  0  0  0  0  0  0  0  0
    6.3410   -0.2702    0.4265 C   0  0  0  1  0  0  0  0  0  0  0  0
    7.0774   -0.9990    0.5171 H   0  0  0  1  0  0  0  0  0  0  0  0
    5.1116   -0.7203    0.2077 N   0  0  0  1  0  0  0  0  0  0  0  0
    4.2372    0.2822    0.1117 C   0  0  0  1  0  0  0  0  0  0  0  0
  1  2  1  0  0  0  0
  1  3  1  0  0  0  0
  1  4  1  0  0  0  0
  1  5  1  0  0  0  0
  5  6  1  0  0  0  0
  5  7  1  0  0  0  0
  5 10  1  0  0  0  0
  7  8  1  0  0  0  0
  7  9  2  0  0  0  0
 10 11  1  0  0  0  0
 10 12  1  0  0  0  0
 10 13  1  0  0  0  0
 13 14  1  0  0  0  0
 13 15  1  0  0  0  0
 13 16  1  0  0  0  0
 16 17  1  0  0  0  0
 16 21  1  0  0  0  0
 17 18  1  0  0  0  0
 17 19  1  0  0  0  0
 17 20  1  0  0  0  0
 21 22  1  0  0  0  0
 21 23  1  0  0  0  0
 21 24  1  0  0  0  0
 24 25  1  0  0  0  0
 24 26  1  0  0  0  0
 24 27  1  0  0  0  0
 26 35  1  0  0  0  0
 27 28  1  0  0  0  0
 27 29  1  0  0  0  0
 27 31  1  0  0  0  0
 29 30  1  0  0  0  0
 31 32  1  0  0  0  0
 31 33  1  0  0  0  0
 31 35  1  0  0  0  0
 33 34  1  0  0  0  0
 35 36  1  0  0  0  0
 35 37  1  0  0  0  0
 37 38  1  0  0  0  0
 37 50  1  0  0  0  0
 38 39  1  0  0  0  0
 38 40  2  0  0  0  0
 40 41  1  0  0  0  0
 41 42  1  0  0  0  0
 41 50  2  0  0  0  0
 42 43  1  0  0  0  0
 42 46  2  0  0  0  0
 43 44  1  0  0  0  0
 43 45  1  0  0  0  0
 46 47  1  0  0  0  0
 47 48  1  0  0  0  0
 47 49  2  0  0  0  0
 49 50  1  0  0  0  0
M  END
> <ConfClashScore>
0 

> <ConfOneFourInteractionScore>
-0.993249 

> <ConfScore>
-0.0578212 

> <ConfScorePBest>
0.0143775 

> <ConfTolerance>
1.24257 

$$$$
SAM.****
  PyMOL2.4          3D                             0

 50 52  0  0  0  0  0  0  0  0999 V2000
   -3.7526   -4.3232    5.5473 N   0  3  0  1  0  0  0  0  0  0  0  0
   -3.4531   -5.1833    6.0699 H   0  0  0  1  0  0  0  0  0  0  0  0
   -4.3363   -4.6020    4.7202 H   0  0  0  1  0  0  0  0  0  0  0  0
   -4.3169   -3.7066    6.1827 H   0  0  0  1  0  0  0  0  0  0  0  0
   -2.5481   -3.5820    5.0775 C   0  0  0  1  0  0  0  0  0  0  0  0
   -1.8574   -4.2629    4.6257 H   0  0  0  1  0  0  0  0  0  0  0  0
   -1.9295   -2.9923    6.2981 C   0  0  0  1  0  0  0  0  0  0  0  0
   -0.5829   -2.8417    6.1813 O   0  5  0  1  0  0  0  0  0  0  0  0
   -2.5856   -2.6877    7.2805 O   0  0  0  1  0  0  0  0  0  0  0  0
   -2.9352   -2.5149    4.0717 C   0  0  0  1  0  0  0  0  0  0  0  0
   -3.4426   -1.7283    4.5901 H   0  0  0  1  0  0  0  0  0  0  0  0
   -3.5948   -2.9513    3.3510 H   0  0  0  1  0  0  0  0  0  0  0  0
   -1.7607   -1.9267    3.3469 C   0  0  0  1  0  0  0  0  0  0  0  0
   -1.4114   -2.8018    2.8399 H   0  0  0  1  0  0  0  0  0  0  0  0
   -1.1247   -1.7200    4.1822 H   0  0  0  1  0  0  0  0  0  0  0  0
   -1.1716   -0.6771    2.2140 S   0  3  0  1  0  0  0  0  0  0  0  0
   -2.5860    0.4340    2.1460 C   0  0  0  1  0  0  0  0  0  0  0  0
   -2.3195    1.3189    1.6067 H   0  0  0  1  0  0  0  0  0  0  0  0
   -2.8803    0.6976    3.1403 H   0  0  0  1  0  0  0  0  0  0  0  0
   -3.3991   -0.0541    1.6504 H   0  0  0  1  0  0  0  0  0  0  0  0
   -1.3698   -1.4908    0.6122 C   0  0  0  1  0  0  0  0  0  0  0  0
   -1.9443   -0.8456   -0.0192 H   0  0  0  1  0  0  0  0  0  0  0  0
   -1.9030   -2.4053    0.7681 H   0  0  0  1  0  0  0  0  0  0  0  0
   -0.0753   -1.8177   -0.1032 C   0  0  0  1  0  0  0  0  0  0  0  0
   -0.2872   -2.3929   -0.9802 H   0  0  0  1  0  0  0  0  0  0  0  0
    0.6062   -0.6045   -0.4643 O   0  0  0  1  0  0  0  0  0  0  0  0
    0.8583   -2.6095    0.8331 C   0  0  0  1  0  0  0  0  0  0  0  0
    0.4167   -2.7257    1.8007 H   0  0  0  1  0  0  0  0  0  0  0  0
    1.1535   -3.8955    0.2861 O   0  0  0  1  0  0  0  0  0  0  0  0
    1.9063   -3.8270   -0.3057 H   0  0  0  1  0  0  0  0  0  0  0  0
    2.1394   -1.7372    0.9130 C   0  0  0  1  0  0  0  0  0  0  0  0
    2.1418   -1.1305    1.7943 H   0  0  0  1  0  0  0  0  0  0  0  0
    3.3193   -2.5442    0.8859 O   0  0  0  1  0  0  0  0  0  0  0  0
    3.1995   -3.3062    1.4574 H   0  0  0  1  0  0  0  0  0  0  0  0
    2.0212   -0.8703   -0.3667 C   0  0  0  1  0  0  0  0  0  0  0  0
    2.3697   -1.4059   -1.2249 H   0  0  0  1  0  0  0  0  0  0  0  0
    2.7784    0.3740   -0.2269 N   0  0  0  1  0  0  0  0  0  0  0  0
    2.7953    1.1885    0.8636 C   0  0  0  1  0  0  0  0  0  0  0  0
    2.4020    0.9009    1.7824 H   0  0  0  1  0  0  0  0  0  0  0  0
    3.3423    2.3576    0.6693 N   0  0  0  1  0  0  0  0  0  0  0  0
    3.7312    2.3170   -0.6606 C   0  0  0  1  0  0  0  0  0  0  0  0
    4.3570    3.2185   -1.5166 C   0  0  0  1  0  0  0  0  0  0  0  0
    4.7497    4.4713   -1.1252 N   0  0  0  1  0  0  0  0  0  0  0  0
    4.5136    4.8027   -0.2337 H   0  0  0  1  0  0  0  0  0  0  0  0
    5.2668    5.0361   -1.7368 H   0  0  0  1  0  0  0  0  0  0  0  0
    4.5977    2.8704   -2.7853 N   0  0  0  1  0  0  0  0  0  0  0  0
    4.2061    1.6514   -3.1886 C   0  0  0  1  0  0  0  0  0  0  0  0
    4.4074    1.4203   -4.1824 H   0  0  0  1  0  0  0  0  0  0  0  0
    3.5967    0.7012   -2.4903 N   0  0  0  1  0  0  0  0  0  0  0  0
    3.3860    1.0840   -1.2301 C   0  0  0  1  0  0  0  0  0  0  0  0
  1  2  1  0  0  0  0
  1  3  1  0  0  0  0
  1  4  1  0  0  0  0
  1  5  1  0  0  0  0
  5  6  1  0  0  0  0
  5  7  1  0  0  0  0
  5 10  1  0  0  0  0
  7  8  1  0  0  0  0
  7  9  2  0  0  0  0
 10 11  1  0  0  0  0
 10 12  1  0  0  0  0
 10 13  1  0  0  0  0
 13 14  1  0  0  0  0
 13 15  1  0  0  0  0
 13 16  1  0  0  0  0
 16 17  1  0  0  0  0
 16 21  1  0  0  0  0
 17 18  1  0  0  0  0
 17 19  1  0  0  0  0
 17 20  1  0  0  0  0
 21 22  1  0  0  0  0
 21 23  1  0  0  0  0
 21 24  1  0  0  0  0
 24 25  1  0  0  0  0
 24 26  1  0  0  0  0
 24 27  1  0  0  0  0
 26 35  1  0  0  0  0
 27 28  1  0  0  0  0
 27 29  1  0  0  0  0
 27 31  1  0  0  0  0
 29 30  1  0  0  0  0
 31 32  1  0  0  0  0
 31 33  1  0  0  0  0
 31 35  1  0  0  0  0
 33 34  1  0  0  0  0
 35 36  1  0  0  0  0
 35 37  1  0  0  0  0
 37 38  1  0  0  0  0
 37 50  1  0  0  0  0
 38 39  1  0  0  0  0
 38 40  2  0  0  0  0
 40 41  1  0  0  0  0
 41 42  1  0  0  0  0
 41 50  2  0  0  0  0
 42 43  1  0  0  0  0
 42 46  2  0  0  0  0
 43 44  1  0  0  0  0
 43 45  1  0  0  0  0
 46 47  1  0  0  0  0
 47 48  1  0  0  0  0
 47 49  2  0  0  0  0
 49 50  1  0  0  0  0
M  END
> <ConfClashScore>
0 

> <ConfOneFourInteractionScore>
-0.969011 

> <ConfScore>
-0.0549776 

> <ConfScorePBest>
0.0142745 

> <ConfTolerance>
1.07983 

$$$$
SAM.****
  PyMOL2.4          3D                             0

 50 52  0  0  0  0  0  0  0  0999 V2000
   -3.4349    1.3577   -1.1650 N   0  3  0  1  0  0  0  0  0  0  0  0
   -3.8480    1.1973   -2.1169 H   0  0  0  1  0  0  0  0  0  0  0  0
   -2.3900    1.2695   -1.2177 H   0  0  0  1  0  0  0  0  0  0  0  0
   -3.6891    2.3203   -0.8311 H   0  0  0  1  0  0  0  0  0  0  0  0
   -3.9710    0.3447   -0.2131 C   0  0  0  1  0  0  0  0  0  0  0  0
   -3.7649   -0.6359   -0.5883 H   0  0  0  1  0  0  0  0  0  0  0  0
   -5.4475    0.5333   -0.1472 C   0  0  0  1  0  0  0  0  0  0  0  0
   -6.0830   -0.6041    0.2426 O   0  5  0  1  0  0  0  0  0  0  0  0
   -6.0269    1.5748   -0.4083 O   0  0  0  1  0  0  0  0  0  0  0  0
   -3.3550    0.4810    1.1374 C   0  0  0  1  0  0  0  0  0  0  0  0
   -3.7487    1.3721    1.5799 H   0  0  0  1  0  0  0  0  0  0  0  0
   -2.2995    0.5877    0.9980 H   0  0  0  1  0  0  0  0  0  0  0  0
   -3.5779   -0.6934    2.1653 C   0  0  0  1  0  0  0  0  0  0  0  0
   -4.6211   -0.8718    2.3227 H   0  0  0  1  0  0  0  0  0  0  0  0
   -3.1073   -0.4774    3.1016 H   0  0  0  1  0  0  0  0  0  0  0  0
   -2.7997   -2.0980    1.3639 S   0  3  0  1  0  0  0  0  0  0  0  0
   -2.1528   -2.9318    2.8117 C   0  0  0  1  0  0  0  0  0  0  0  0
   -2.5388   -3.9289    2.8519 H   0  0  0  1  0  0  0  0  0  0  0  0
   -2.4486   -2.3994    3.6915 H   0  0  0  1  0  0  0  0  0  0  0  0
   -1.0848   -2.9649    2.7565 H   0  0  0  1  0  0  0  0  0  0  0  0
   -1.3727   -1.4577    0.6350 C   0  0  0  1  0  0  0  0  0  0  0  0
   -0.9492   -0.9625    1.4838 H   0  0  0  1  0  0  0  0  0  0  0  0
   -1.8176   -0.7340   -0.0155 H   0  0  0  1  0  0  0  0  0  0  0  0
   -0.1050   -1.7446   -0.1429 C   0  0  0  1  0  0  0  0  0  0  0  0
   -0.3532   -2.2293   -1.0640 H   0  0  0  1  0  0  0  0  0  0  0  0
    0.5975   -0.5185   -0.4069 O   0  0  0  1  0  0  0  0  0  0  0  0
    0.8315   -2.6424    0.6889 C   0  0  0  1  0  0  0  0  0  0  0  0
    0.4115   -2.8396    1.6530 H   0  0  0  1  0  0  0  0  0  0  0  0
    1.0805   -3.8773    0.0157 O   0  0  0  1  0  0  0  0  0  0  0  0
    1.6847   -4.4106    0.5374 H   0  0  0  1  0  0  0  0  0  0  0  0
    2.1357   -1.8108    0.8155 C   0  0  0  1  0  0  0  0  0  0  0  0
    2.1754   -1.2905    1.7495 H   0  0  0  1  0  0  0  0  0  0  0  0
    3.2927   -2.6374    0.6806 O   0  0  0  1  0  0  0  0  0  0  0  0
    3.6712   -2.8028    1.5472 H   0  0  0  1  0  0  0  0  0  0  0  0
    2.0073   -0.8242   -0.3733 C   0  0  0  1  0  0  0  0  0  0  0  0
    2.3206   -1.2841   -1.2872 H   0  0  0  1  0  0  0  0  0  0  0  0
    2.8002    0.3859   -0.1375 N   0  0  0  1  0  0  0  0  0  0  0  0
    2.2856    1.5954    0.2161 C   0  0  0  1  0  0  0  0  0  0  0  0
    1.2666    1.7506    0.3550 H   0  0  0  1  0  0  0  0  0  0  0  0
    3.1673    2.5459    0.3677 N   0  0  0  1  0  0  0  0  0  0  0  0
    4.3729    1.9158    0.1014 C   0  0  0  1  0  0  0  0  0  0  0  0
    5.7001    2.3336    0.0705 C   0  0  0  1  0  0  0  0  0  0  0  0
    6.0852    3.6202    0.3410 N   0  0  0  1  0  0  0  0  0  0  0  0
    5.4145    4.2907    0.5878 H   0  0  0  1  0  0  0  0  0  0  0  0
    7.0313    3.8700    0.2877 H   0  0  0  1  0  0  0  0  0  0  0  0
    6.6639    1.4580   -0.2348 N   0  0  0  1  0  0  0  0  0  0  0  0
    6.3019    0.1964   -0.5165 C   0  0  0  1  0  0  0  0  0  0  0  0
    7.0795   -0.4525   -0.7528 H   0  0  0  1  0  0  0  0  0  0  0  0
    5.0856   -0.3347   -0.5341 N   0  0  0  1  0  0  0  0  0  0  0  0
    4.1570    0.5675   -0.2137 C   0  0  0  1  0  0  0  0  0  0  0  0
  1  2  1  0  0  0  0
  1  3  1  0  0  0  0
  1  4  1  0  0  0  0
  1  5  1  0  0  0  0
  5  6  1  0  0  0  0
  5  7  1  0  0  0  0
  5 10  1  0  0  0  0
  7  8  1  0  0  0  0
  7  9  2  0  0  0  0
 10 11  1  0  0  0  0
 10 12  1  0  0  0  0
 10 13  1  0  0  0  0
 13 14  1  0  0  0  0
 13 15  1  0  0  0  0
 13 16  1  0  0  0  0
 16 17  1  0  0  0  0
 16 21  1  0  0  0  0
 17 18  1  0  0  0  0
 17 19  1  0  0  0  0
 17 20  1  0  0  0  0
 21 22  1  0  0  0  0
 21 23  1  0  0  0  0
 21 24  1  0  0  0  0
 24 25  1  0  0  0  0
 24 26  1  0  0  0  0
 24 27  1  0  0  0  0
 26 35  1  0  0  0  0
 27 28  1  0  0  0  0
 27 29  1  0  0  0  0
 27 31  1  0  0  0  0
 29 30  1  0  0  0  0
 31 32  1  0  0  0  0
 31 33  1  0  0  0  0
 31 35  1  0  0  0  0
 33 34  1  0  0  0  0
 35 36  1  0  0  0  0
 35 37  1  0  0  0  0
 37 38  1  0  0  0  0
 37 50  1  0  0  0  0
 38 39  1  0  0  0  0
 38 40  2  0  0  0  0
 40 41  1  0  0  0  0
 41 42  1  0  0  0  0
 41 50  2  0  0  0  0
 42 43  1  0  0  0  0
 42 46  2  0  0  0  0
 43 44  1  0  0  0  0
 43 45  1  0  0  0  0
 46 47  1  0  0  0  0
 47 48  1  0  0  0  0
 47 49  2  0  0  0  0
 49 50  1  0  0  0  0
M  END
> <ConfClashScore>
0 

> <ConfOneFourInteractionScore>
-0.970453 

> <ConfScore>
-0.0534395 

> <ConfScorePBest>
0.0141715 

> <ConfTolerance>
1.06769 

$$$$
SAM.****
  PyMOL2.4          3D                             0

 50 52  0  0  0  0  0  0  0  0999 V2000
   -5.7103   -0.5008   -0.8138 N   0  3  0  1  0  0  0  0  0  0  0  0
   -5.7649   -0.9128   -1.7781 H   0  0  0  1  0  0  0  0  0  0  0  0
   -5.1490    0.3861   -0.8437 H   0  0  0  1  0  0  0  0  0  0  0  0
   -6.6792   -0.2910   -0.4678 H   0  0  0  1  0  0  0  0  0  0  0  0
   -5.0546   -1.4724    0.1057 C   0  0  0  1  0  0  0  0  0  0  0  0
   -4.3090   -2.0255   -0.4263 H   0  0  0  1  0  0  0  0  0  0  0  0
   -6.0943   -2.4123    0.6114 C   0  0  0  1  0  0  0  0  0  0  0  0
   -5.6819   -3.6962    0.7882 O   0  5  0  1  0  0  0  0  0  0  0  0
   -7.2424   -2.0816    0.8582 O   0  0  0  1  0  0  0  0  0  0  0  0
   -4.3970   -0.7240    1.2491 C   0  0  0  1  0  0  0  0  0  0  0  0
   -5.1601   -0.2357    1.8184 H   0  0  0  1  0  0  0  0  0  0  0  0
   -3.7339    0.0084    0.8384 H   0  0  0  1  0  0  0  0  0  0  0  0
   -3.6123   -1.6136    2.1695 C   0  0  0  1  0  0  0  0  0  0  0  0
   -4.2975   -2.3156    2.5969 H   0  0  0  1  0  0  0  0  0  0  0  0
   -3.2059   -0.9952    2.9424 H   0  0  0  1  0  0  0  0  0  0  0  0
   -2.1951   -2.5924    1.4324 S   0  3  0  1  0  0  0  0  0  0  0  0
   -1.5503   -3.1761    3.0346 C   0  0  0  1  0  0  0  0  0  0  0  0
   -2.2369   -2.9146    3.8125 H   0  0  0  1  0  0  0  0  0  0  0  0
   -0.6030   -2.7170    3.2262 H   0  0  0  1  0  0  0  0  0  0  0  0
   -1.4327   -4.2392    3.0055 H   0  0  0  1  0  0  0  0  0  0  0  0
   -1.2018   -1.2988    0.6376 C   0  0  0  1  0  0  0  0  0  0  0  0
   -0.8381   -0.6269    1.3867 H   0  0  0  1  0  0  0  0  0  0  0  0
   -1.8157   -0.7624   -0.0555 H   0  0  0  1  0  0  0  0  0  0  0  0
   -0.0282   -1.8966   -0.1018 C   0  0  0  1  0  0  0  0  0  0  0  0
   -0.3851   -2.5609   -0.8609 H   0  0  0  1  0  0  0  0  0  0  0  0
    0.7360   -0.8779   -0.6830 O   0  0  0  1  0  0  0  0  0  0  0  0
    0.8720   -2.6625    0.8806 C   0  0  0  1  0  0  0  0  0  0  0  0
    0.3663   -2.8435    1.8060 H   0  0  0  1  0  0  0  0  0  0  0  0
    1.3036   -3.9043    0.3223 O   0  0  0  1  0  0  0  0  0  0  0  0
    1.2381   -3.8653   -0.6347 H   0  0  0  1  0  0  0  0  0  0  0  0
    2.0538   -1.7030    1.0747 C   0  0  0  1  0  0  0  0  0  0  0  0
    1.8699   -1.0290    1.8852 H   0  0  0  1  0  0  0  0  0  0  0  0
    3.2620   -2.4244    1.3192 O   0  0  0  1  0  0  0  0  0  0  0  0
    3.5617   -2.8333    0.5040 H   0  0  0  1  0  0  0  0  0  0  0  0
    2.1248   -0.9602   -0.2398 C   0  0  0  1  0  0  0  0  0  0  0  0
    2.7173   -1.5001   -0.9485 H   0  0  0  1  0  0  0  0  0  0  0  0
    2.6877    0.3757   -0.0499 N   0  0  0  1  0  0  0  0  0  0  0  0
    3.6362    0.9499   -0.8396 C   0  0  0  1  0  0  0  0  0  0  0  0
    4.0925    0.4424   -1.6243 H   0  0  0  1  0  0  0  0  0  0  0  0
    3.9297    2.1854   -0.5377 N   0  0  0  1  0  0  0  0  0  0  0  0
    3.1013    2.4622    0.5387 C   0  0  0  1  0  0  0  0  0  0  0  0
    2.9030    3.5760    1.3493 C   0  0  0  1  0  0  0  0  0  0  0  0
    3.5699    4.7909    1.2348 N   0  0  0  1  0  0  0  0  0  0  0  0
    4.2216    4.9263    0.5155 H   0  0  0  1  0  0  0  0  0  0  0  0
    3.3882    5.5118    1.8733 H   0  0  0  1  0  0  0  0  0  0  0  0
    2.0043    3.5246    2.3384 N   0  0  0  1  0  0  0  0  0  0  0  0
    1.3313    2.3772    2.5183 C   0  0  0  1  0  0  0  0  0  0  0  0
    0.6450    2.3760    3.2998 H   0  0  0  1  0  0  0  0  0  0  0  0
    1.4234    1.2438    1.8336 N   0  0  0  1  0  0  0  0  0  0  0  0
    2.3206    1.3413    0.8515 C   0  0  0  1  0  0  0  0  0  0  0  0
  1  2  1  0  0  0  0
  1  3  1  0  0  0  0
  1  4  1  0  0  0  0
  1  5  1  0  0  0  0
  5  6  1  0  0  0  0
  5  7  1  0  0  0  0
  5 10  1  0  0  0  0
  7  8  1  0  0  0  0
  7  9  2  0  0  0  0
 10 11  1  0  0  0  0
 10 12  1  0  0  0  0
 10 13  1  0  0  0  0
 13 14  1  0  0  0  0
 13 15  1  0  0  0  0
 13 16  1  0  0  0  0
 16 17  1  0  0  0  0
 16 21  1  0  0  0  0
 17 18  1  0  0  0  0
 17 19  1  0  0  0  0
 17 20  1  0  0  0  0
 21 22  1  0  0  0  0
 21 23  1  0  0  0  0
 21 24  1  0  0  0  0
 24 25  1  0  0  0  0
 24 26  1  0  0  0  0
 24 27  1  0  0  0  0
 26 35  1  0  0  0  0
 27 28  1  0  0  0  0
 27 29  1  0  0  0  0
 27 31  1  0  0  0  0
 29 30  1  0  0  0  0
 31 32  1  0  0  0  0
 31 33  1  0  0  0  0
 31 35  1  0  0  0  0
 33 34  1  0  0  0  0
 35 36  1  0  0  0  0
 35 37  1  0  0  0  0
 37 38  1  0  0  0  0
 37 50  1  0  0  0  0
 38 39  1  0  0  0  0
 38 40  2  0  0  0  0
 40 41  1  0  0  0  0
 41 42  1  0  0  0  0
 41 50  2  0  0  0  0
 42 43  1  0  0  0  0
 42 46  2  0  0  0  0
 43 44  1  0  0  0  0
 43 45  1  0  0  0  0
 46 47  1  0  0  0  0
 47 48  1  0  0  0  0
 47 49  2  0  0  0  0
 49 50  1  0  0  0  0
M  END
> <ConfClashScore>
0 

> <ConfOneFourInteractionScore>
-0.984131 

> <ConfScore>
-0.0511757 

> <ConfScorePBest>
0.0140685 

> <ConfTolerance>
1.07535 

$$$$
SAM.****
  PyMOL2.4          3D                             0

 50 52  0  0  0  0  0  0  0  0999 V2000
   -2.6200    2.8287    4.4323 N   0  3  0  1  0  0  0  0  0  0  0  0
   -3.2661    3.5796    4.7804 H   0  0  0  1  0  0  0  0  0  0  0  0
   -1.8716    3.2604    3.8355 H   0  0  0  1  0  0  0  0  0  0  0  0
   -2.1780    2.3407    5.2502 H   0  0  0  1  0  0  0  0  0  0  0  0
   -3.3921    1.8434    3.6245 C   0  0  0  1  0  0  0  0  0  0  0  0
   -4.2095    2.3625    3.1694 H   0  0  0  1  0  0  0  0  0  0  0  0
   -3.9653    0.7846    4.5023 C   0  0  0  1  0  0  0  0  0  0  0  0
   -5.1838    0.3713    4.0618 O   0  5  0  1  0  0  0  0  0  0  0  0
   -3.4186    0.3355    5.4962 O   0  0  0  1  0  0  0  0  0  0  0  0
   -2.5050    1.3202    2.5049 C   0  0  0  1  0  0  0  0  0  0  0  0
   -1.6871    0.7769    2.9301 H   0  0  0  1  0  0  0  0  0  0  0  0
   -2.1290    2.1472    1.9396 H   0  0  0  1  0  0  0  0  0  0  0  0
   -3.2678    0.4245    1.6062 C   0  0  0  1  0  0  0  0  0  0  0  0
   -4.1399    0.9494    1.2764 H   0  0  0  1  0  0  0  0  0  0  0  0
   -3.5609   -0.4380    2.1676 H   0  0  0  1  0  0  0  0  0  0  0  0
   -2.3324   -0.1584    0.0912 S   0  3  0  1  0  0  0  0  0  0  0  0
   -3.7621   -0.9949   -0.6703 C   0  0  0  1  0  0  0  0  0  0  0  0
   -3.6789   -2.0512   -0.5211 H   0  0  0  1  0  0  0  0  0  0  0  0
   -3.7816   -0.7835   -1.7190 H   0  0  0  1  0  0  0  0  0  0  0  0
   -4.6647   -0.6409   -0.2177 H   0  0  0  1  0  0  0  0  0  0  0  0
   -1.0989   -1.2643    0.8013 C   0  0  0  1  0  0  0  0  0  0  0  0
   -1.6214   -2.0970    1.2237 H   0  0  0  1  0  0  0  0  0  0  0  0
   -0.5966   -0.7264    1.5780 H   0  0  0  1  0  0  0  0  0  0  0  0
   -0.0367   -1.8191   -0.1251 C   0  0  0  1  0  0  0  0  0  0  0  0
   -0.4987   -2.4267   -0.8750 H   0  0  0  1  0  0  0  0  0  0  0  0
    0.6982   -0.7342   -0.7464 O   0  0  0  1  0  0  0  0  0  0  0  0
    0.9775   -2.6477    0.6729 C   0  0  0  1  0  0  0  0  0  0  0  0
    0.5650   -2.9612    1.6091 H   0  0  0  1  0  0  0  0  0  0  0  0
    1.4006   -3.7925   -0.0690 O   0  0  0  1  0  0  0  0  0  0  0  0
    1.2099   -4.5882    0.4332 H   0  0  0  1  0  0  0  0  0  0  0  0
    2.1395   -1.6684    0.8839 C   0  0  0  1  0  0  0  0  0  0  0  0
    2.0111   -1.1017    1.7824 H   0  0  0  1  0  0  0  0  0  0  0  0
    3.3924   -2.3529    0.9269 O   0  0  0  1  0  0  0  0  0  0  0  0
    3.2491   -3.2679    1.1796 H   0  0  0  1  0  0  0  0  0  0  0  0
    2.0364   -0.7693   -0.3635 C   0  0  0  1  0  0  0  0  0  0  0  0
    2.6320   -1.1737   -1.1551 H   0  0  0  1  0  0  0  0  0  0  0  0
    2.5007    0.5838   -0.0442 N   0  0  0  1  0  0  0  0  0  0  0  0
    3.4657    1.3291   -0.6491 C   0  0  0  1  0  0  0  0  0  0  0  0
    4.0070    0.9851   -1.4678 H   0  0  0  1  0  0  0  0  0  0  0  0
    3.6607    2.5082   -0.1241 N   0  0  0  1  0  0  0  0  0  0  0  0
    2.7424    2.5577    0.9131 C   0  0  0  1  0  0  0  0  0  0  0  0
    2.4191    3.5067    1.8784 C   0  0  0  1  0  0  0  0  0  0  0  0
    3.0439    4.7224    1.9701 N   0  0  0  1  0  0  0  0  0  0  0  0
    2.7618    5.3682    2.6512 H   0  0  0  1  0  0  0  0  0  0  0  0
    3.7729    4.9464    1.3546 H   0  0  0  1  0  0  0  0  0  0  0  0
    1.4573    3.2444    2.7699 N   0  0  0  1  0  0  0  0  0  0  0  0
    0.8449    2.0518    2.7027 C   0  0  0  1  0  0  0  0  0  0  0  0
    0.1062    1.8846    3.4154 H   0  0  0  1  0  0  0  0  0  0  0  0
    1.0549    1.0570    1.8493 N   0  0  0  1  0  0  0  0  0  0  0  0
    2.0119    1.3633    0.9723 C   0  0  0  1  0  0  0  0  0  0  0  0
  1  2  1  0  0  0  0
  1  3  1  0  0  0  0
  1  4  1  0  0  0  0
  1  5  1  0  0  0  0
  5  6  1  0  0  0  0
  5  7  1  0  0  0  0
  5 10  1  0  0  0  0
  7  8  1  0  0  0  0
  7  9  2  0  0  0  0
 10 11  1  0  0  0  0
 10 12  1  0  0  0  0
 10 13  1  0  0  0  0
 13 14  1  0  0  0  0
 13 15  1  0  0  0  0
 13 16  1  0  0  0  0
 16 17  1  0  0  0  0
 16 21  1  0  0  0  0
 17 18  1  0  0  0  0
 17 19  1  0  0  0  0
 17 20  1  0  0  0  0
 21 22  1  0  0  0  0
 21 23  1  0  0  0  0
 21 24  1  0  0  0  0
 24 25  1  0  0  0  0
 24 26  1  0  0  0  0
 24 27  1  0  0  0  0
 26 35  1  0  0  0  0
 27 28  1  0  0  0  0
 27 29  1  0  0  0  0
 27 31  1  0  0  0  0
 29 30  1  0  0  0  0
 31 32  1  0  0  0  0
 31 33  1  0  0  0  0
 31 35  1  0  0  0  0
 33 34  1  0  0  0  0
 35 36  1  0  0  0  0
 35 37  1  0  0  0  0
 37 38  1  0  0  0  0
 37 50  1  0  0  0  0
 38 39  1  0  0  0  0
 38 40  2  0  0  0  0
 40 41  1  0  0  0  0
 41 42  1  0  0  0  0
 41 50  2  0  0  0  0
 42 43  1  0  0  0  0
 42 46  2  0  0  0  0
 43 44  1  0  0  0  0
 43 45  1  0  0  0  0
 46 47  1  0  0  0  0
 47 48  1  0  0  0  0
 47 49  2  0  0  0  0
 49 50  1  0  0  0  0
M  END
> <ConfClashScore>
0 

> <ConfOneFourInteractionScore>
-0.988075 

> <ConfScore>
-0.0505398 

> <ConfScorePBest>
0.0139655 

> <ConfTolerance>
1.11354 

$$$$
SAM.****
  PyMOL2.4          3D                             0

 50 52  0  0  0  0  0  0  0  0999 V2000
    2.4711   -1.4341    4.8098 N   0  3  0  1  0  0  0  0  0  0  0  0
    2.1791   -2.2346    4.1962 H   0  0  0  1  0  0  0  0  0  0  0  0
    3.0712   -1.7942    5.5926 H   0  0  0  1  0  0  0  0  0  0  0  0
    3.0158   -0.7388    4.2420 H   0  0  0  1  0  0  0  0  0  0  0  0
    1.2612   -0.7739    5.3753 C   0  0  0  1  0  0  0  0  0  0  0  0
    1.5742   -0.0254    6.0729 H   0  0  0  1  0  0  0  0  0  0  0  0
    0.5077   -1.8206    6.1214 C   0  0  0  1  0  0  0  0  0  0  0  0
   -0.6506   -1.3324    6.6408 O   0  5  0  1  0  0  0  0  0  0  0  0
    0.8741   -2.9764    6.2568 O   0  0  0  1  0  0  0  0  0  0  0  0
    0.4421   -0.0976    4.2929 C   0  0  0  1  0  0  0  0  0  0  0  0
    1.0739    0.5879    3.7677 H   0  0  0  1  0  0  0  0  0  0  0  0
   -0.3581    0.4389    4.7584 H   0  0  0  1  0  0  0  0  0  0  0  0
   -0.1440   -1.0604    3.3009 C   0  0  0  1  0  0  0  0  0  0  0  0
   -0.8245   -1.6924    3.8323 H   0  0  0  1  0  0  0  0  0  0  0  0
    0.6608   -1.6488    2.9125 H   0  0  0  1  0  0  0  0  0  0  0  0
   -0.9882   -0.4081    1.9687 S   0  3  0  1  0  0  0  0  0  0  0  0
   -2.7518   -0.3552    2.5985 C   0  0  0  1  0  0  0  0  0  0  0  0
   -3.0514    0.6627    2.7364 H   0  0  0  1  0  0  0  0  0  0  0  0
   -2.8125   -0.8743    3.5322 H   0  0  0  1  0  0  0  0  0  0  0  0
   -3.3987   -0.8238    1.8865 H   0  0  0  1  0  0  0  0  0  0  0  0
   -1.3270   -1.5790    0.6410 C   0  0  0  1  0  0  0  0  0  0  0  0
   -2.0828   -1.1838   -0.0052 H   0  0  0  1  0  0  0  0  0  0  0  0
   -1.6605   -2.5077    1.0546 H   0  0  0  1  0  0  0  0  0  0  0  0
   -0.0505   -1.7966   -0.1395 C   0  0  0  1  0  0  0  0  0  0  0  0
   -0.2754   -2.2913   -1.0612 H   0  0  0  1  0  0  0  0  0  0  0  0
    0.5860   -0.5346   -0.4019 O   0  0  0  1  0  0  0  0  0  0  0  0
    0.9340   -2.6461    0.6875 C   0  0  0  1  0  0  0  0  0  0  0  0
    0.5275   -2.8676    1.6522 H   0  0  0  1  0  0  0  0  0  0  0  0
    1.2456   -3.8645    0.0103 O   0  0  0  1  0  0  0  0  0  0  0  0
    0.9718   -4.6100    0.5496 H   0  0  0  1  0  0  0  0  0  0  0  0
    2.1932   -1.7476    0.8130 C   0  0  0  1  0  0  0  0  0  0  0  0
    2.2080   -1.2282    1.7483 H   0  0  0  1  0  0  0  0  0  0  0  0
    3.3916   -2.5120    0.6729 O   0  0  0  1  0  0  0  0  0  0  0  0
    3.6810   -2.8152    1.5365 H   0  0  0  1  0  0  0  0  0  0  0  0
    2.0100   -0.7661   -0.3728 C   0  0  0  1  0  0  0  0  0  0  0  0
    2.3445   -1.2065   -1.2888 H   0  0  0  1  0  0  0  0  0  0  0  0
    2.7376    0.4812   -0.1361 N   0  0  0  1  0  0  0  0  0  0  0  0
    3.8035    0.9557   -0.8372 C   0  0  0  1  0  0  0  0  0  0  0  0
    4.2094    0.4482   -1.6492 H   0  0  0  1  0  0  0  0  0  0  0  0
    4.2778    2.0956   -0.4137 N   0  0  0  1  0  0  0  0  0  0  0  0
    3.4537    2.4133    0.6547 C   0  0  0  1  0  0  0  0  0  0  0  0
    3.3988    3.4718    1.5567 C   0  0  0  1  0  0  0  0  0  0  0  0
    4.2748    4.5247    1.5276 N   0  0  0  1  0  0  0  0  0  0  0  0
    4.9813    4.5558    0.8491 H   0  0  0  1  0  0  0  0  0  0  0  0
    4.1950    5.2469    2.1852 H   0  0  0  1  0  0  0  0  0  0  0  0
    2.4568    3.4859    2.5058 N   0  0  0  1  0  0  0  0  0  0  0  0
    1.5993    2.4543    2.5570 C   0  0  0  1  0  0  0  0  0  0  0  0
    0.8848    2.5003    3.3113 H   0  0  0  1  0  0  0  0  0  0  0  0
    1.5403    1.3834    1.7749 N   0  0  0  1  0  0  0  0  0  0  0  0
    2.4880    1.4143    0.8369 C   0  0  0  1  0  0  0  0  0  0  0  0
  1  2  1  0  0  0  0
  1  3  1  0  0  0  0
  1  4  1  0  0  0  0
  1  5  1  0  0  0  0
  5  6  1  0  0  0  0
  5  7  1  0  0  0  0
  5 10  1  0  0  0  0
  7  8  1  0  0  0  0
  7  9  2  0  0  0  0
 10 11  1  0  0  0  0
 10 12  1  0  0  0  0
 10 13  1  0  0  0  0
 13 14  1  0  0  0  0
 13 15  1  0  0  0  0
 13 16  1  0  0  0  0
 16 17  1  0  0  0  0
 16 21  1  0  0  0  0
 17 18  1  0  0  0  0
 17 19  1  0  0  0  0
 17 20  1  0  0  0  0
 21 22  1  0  0  0  0
 21 23  1  0  0  0  0
 21 24  1  0  0  0  0
 24 25  1  0  0  0  0
 24 26  1  0  0  0  0
 24 27  1  0  0  0  0
 26 35  1  0  0  0  0
 27 28  1  0  0  0  0
 27 29  1  0  0  0  0
 27 31  1  0  0  0  0
 29 30  1  0  0  0  0
 31 32  1  0  0  0  0
 31 33  1  0  0  0  0
 31 35  1  0  0  0  0
 33 34  1  0  0  0  0
 35 36  1  0  0  0  0
 35 37  1  0  0  0  0
 37 38  1  0  0  0  0
 37 50  1  0  0  0  0
 38 39  1  0  0  0  0
 38 40  2  0  0  0  0
 40 41  1  0  0  0  0
 41 42  1  0  0  0  0
 41 50  2  0  0  0  0
 42 43  1  0  0  0  0
 42 46  2  0  0  0  0
 43 44  1  0  0  0  0
 43 45  1  0  0  0  0
 46 47  1  0  0  0  0
 47 48  1  0  0  0  0
 47 49  2  0  0  0  0
 49 50  1  0  0  0  0
M  END
> <ConfClashScore>
0 

> <ConfOneFourInteractionScore>
-0.986354 

> <ConfScore>
-0.0478681 

> <ConfScorePBest>
0.0138625 

> <ConfTolerance>
1.32341 

$$$$
SAM.****
  PyMOL2.4          3D                             0

 50 52  0  0  0  0  0  0  0  0999 V2000
   -5.7901   -1.9542    3.6509 N   0  3  0  1  0  0  0  0  0  0  0  0
   -5.8656   -2.2216    2.6384 H   0  0  0  1  0  0  0  0  0  0  0  0
   -6.2977   -1.0493    3.8125 H   0  0  0  1  0  0  0  0  0  0  0  0
   -6.2183   -2.7071    4.2444 H   0  0  0  1  0  0  0  0  0  0  0  0
   -4.3453   -1.7892    4.0188 C   0  0  0  1  0  0  0  0  0  0  0  0
   -3.9072   -2.7645    4.0632 H   0  0  0  1  0  0  0  0  0  0  0  0
   -4.2181   -1.1767    5.3711 C   0  0  0  1  0  0  0  0  0  0  0  0
   -3.1363   -1.6568    6.0411 O   0  5  0  1  0  0  0  0  0  0  0  0
   -4.9837   -0.3460    5.8319 O   0  0  0  1  0  0  0  0  0  0  0  0
   -3.6388   -1.0215    2.9117 C   0  0  0  1  0  0  0  0  0  0  0  0
   -2.5929   -0.9891    3.1354 H   0  0  0  1  0  0  0  0  0  0  0  0
   -4.0297   -0.0258    2.8866 H   0  0  0  1  0  0  0  0  0  0  0  0
   -3.8184   -1.6443    1.5377 C   0  0  0  1  0  0  0  0  0  0  0  0
   -4.8606   -1.6453    1.2957 H   0  0  0  1  0  0  0  0  0  0  0  0
   -3.4579   -2.6513    1.5683 H   0  0  0  1  0  0  0  0  0  0  0  0
   -2.9336   -0.7574    0.2584 S   0  3  0  1  0  0  0  0  0  0  0  0
   -3.5407   -1.5388   -1.2302 C   0  0  0  1  0  0  0  0  0  0  0  0
   -3.0512   -1.1140   -2.0816 H   0  0  0  1  0  0  0  0  0  0  0  0
   -4.5960   -1.3814   -1.3105 H   0  0  0  1  0  0  0  0  0  0  0  0
   -3.3382   -2.5886   -1.1897 H   0  0  0  1  0  0  0  0  0  0  0  0
   -1.3863   -1.5030    0.4241 C   0  0  0  1  0  0  0  0  0  0  0  0
   -1.6960   -2.5095    0.6138 H   0  0  0  1  0  0  0  0  0  0  0  0
   -1.0696   -1.0482    1.3393 H   0  0  0  1  0  0  0  0  0  0  0  0
   -0.0372   -1.7723   -0.1982 C   0  0  0  1  0  0  0  0  0  0  0  0
   -0.1690   -2.2803   -1.1307 H   0  0  0  1  0  0  0  0  0  0  0  0
    0.6629   -0.5344   -0.4079 O   0  0  0  1  0  0  0  0  0  0  0  0
    0.8193   -2.6309    0.7527 C   0  0  0  1  0  0  0  0  0  0  0  0
    0.2977   -2.8202    1.6676 H   0  0  0  1  0  0  0  0  0  0  0  0
    1.1683   -3.8646    0.1420 O   0  0  0  1  0  0  0  0  0  0  0  0
    1.7551   -4.3548    0.7224 H   0  0  0  1  0  0  0  0  0  0  0  0
    2.0820   -1.7651    1.0070 C   0  0  0  1  0  0  0  0  0  0  0  0
    2.0044   -1.2264    1.9283 H   0  0  0  1  0  0  0  0  0  0  0  0
    3.2656   -2.5657    1.0208 O   0  0  0  1  0  0  0  0  0  0  0  0
    3.3585   -3.0149    0.1776 H   0  0  0  1  0  0  0  0  0  0  0  0
    2.0665   -0.8046   -0.2096 C   0  0  0  1  0  0  0  0  0  0  0  0
    2.4911   -1.2737   -1.0724 H   0  0  0  1  0  0  0  0  0  0  0  0
    2.7991    0.4268    0.0872 N   0  0  0  1  0  0  0  0  0  0  0  0
    3.8894    0.9116   -0.5677 C   0  0  0  1  0  0  0  0  0  0  0  0
    4.3137    0.4255   -1.3833 H   0  0  0  1  0  0  0  0  0  0  0  0
    4.3623    2.0326   -0.0949 N   0  0  0  1  0  0  0  0  0  0  0  0
    3.5107    2.3254    0.9590 C   0  0  0  1  0  0  0  0  0  0  0  0
    3.4400    3.3556    1.8920 C   0  0  0  1  0  0  0  0  0  0  0  0
    4.3500    4.3723    1.8762 N   0  0  0  1  0  0  0  0  0  0  0  0
    4.2984    5.0865    2.5452 H   0  0  0  1  0  0  0  0  0  0  0  0
    5.0551    4.3882    1.1958 H   0  0  0  1  0  0  0  0  0  0  0  0
    2.4710    3.3500    2.8138 N   0  0  0  1  0  0  0  0  0  0  0  0
    1.6024    2.3265    2.8076 C   0  0  0  1  0  0  0  0  0  0  0  0
    0.8668    2.3565    3.5422 H   0  0  0  1  0  0  0  0  0  0  0  0
    1.5557    1.2814    1.9907 N   0  0  0  1  0  0  0  0  0  0  0  0
    2.5305    1.3315    1.0817 C   0  0  0  1  0  0  0  0  0  0  0  0
  1  2  1  0  0  0  0
  1  3  1  0  0  0  0
  1  4  1  0  0  0  0
  1  5  1  0  0  0  0
  5  6  1  0  0  0  0
  5  7  1  0  0  0  0
  5 10  1  0  0  0  0
  7  8  1  0  0  0  0
  7  9  2  0  0  0  0
 10 11  1  0  0  0  0
 10 12  1  0  0  0  0
 10 13  1  0  0  0  0
 13 14  1  0  0  0  0
 13 15  1  0  0  0  0
 13 16  1  0  0  0  0
 16 17  1  0  0  0  0
 16 21  1  0  0  0  0
 17 18  1  0  0  0  0
 17 19  1  0  0  0  0
 17 20  1  0  0  0  0
 21 22  1  0  0  0  0
 21 23  1  0  0  0  0
 21 24  1  0  0  0  0
 24 25  1  0  0  0  0
 24 26  1  0  0  0  0
 24 27  1  0  0  0  0
 26 35  1  0  0  0  0
 27 28  1  0  0  0  0
 27 29  1  0  0  0  0
 27 31  1  0  0  0  0
 29 30  1  0  0  0  0
 31 32  1  0  0  0  0
 31 33  1  0  0  0  0
 31 35  1  0  0  0  0
 33 34  1  0  0  0  0
 35 36  1  0  0  0  0
 35 37  1  0  0  0  0
 37 38  1  0  0  0  0
 37 50  1  0  0  0  0
 38 39  1  0  0  0  0
 38 40  2  0  0  0  0
 40 41  1  0  0  0  0
 41 42  1  0  0  0  0
 41 50  2  0  0  0  0
 42 43  1  0  0  0  0
 42 46  2  0  0  0  0
 43 44  1  0  0  0  0
 43 45  1  0  0  0  0
 46 47  1  0  0  0  0
 47 48  1  0  0  0  0
 47 49  2  0  0  0  0
 49 50  1  0  0  0  0
M  END
> <ConfClashScore>
0 

> <ConfOneFourInteractionScore>
-0.986105 

> <ConfScore>
-0.0456757 

> <ConfScorePBest>
0.0137595 

> <ConfTolerance>
1.09946 

$$$$
SAM.****
  PyMOL2.4          3D                             0

 50 52  0  0  0  0  0  0  0  0999 V2000
   -7.2143   -4.7821    0.1721 N   0  3  0  1  0  0  0  0  0  0  0  0
   -8.1509   -4.4836    0.5411 H   0  0  0  1  0  0  0  0  0  0  0  0
   -6.8522   -5.5843    0.7448 H   0  0  0  1  0  0  0  0  0  0  0  0
   -7.3125   -5.0825   -0.8292 H   0  0  0  1  0  0  0  0  0  0  0  0
   -6.2571   -3.6382    0.2569 C   0  0  0  1  0  0  0  0  0  0  0  0
   -6.1301   -3.3955    1.2912 H   0  0  0  1  0  0  0  0  0  0  0  0
   -6.8684   -2.4521   -0.4062 C   0  0  0  1  0  0  0  0  0  0  0  0
   -6.0706   -1.3553   -0.3054 O   0  5  0  1  0  0  0  0  0  0  0  0
   -7.9170   -2.4897   -1.0287 O   0  0  0  1  0  0  0  0  0  0  0  0
   -4.8948   -4.0151   -0.2926 C   0  0  0  1  0  0  0  0  0  0  0  0
   -4.9627   -4.1233   -1.3550 H   0  0  0  1  0  0  0  0  0  0  0  0
   -4.5857   -4.9428    0.1418 H   0  0  0  1  0  0  0  0  0  0  0  0
   -3.8935   -2.9722    0.0262 C   0  0  0  1  0  0  0  0  0  0  0  0
   -3.8797   -2.8387    1.0877 H   0  0  0  1  0  0  0  0  0  0  0  0
   -4.2011   -2.0618   -0.4444 H   0  0  0  1  0  0  0  0  0  0  0  0
   -2.2253   -3.3382   -0.5094 S   0  3  0  1  0  0  0  0  0  0  0  0
   -1.7002   -4.5667    0.6780 C   0  0  0  1  0  0  0  0  0  0  0  0
   -2.5491   -4.9208    1.2247 H   0  0  0  1  0  0  0  0  0  0  0  0
   -0.9968   -4.1298    1.3556 H   0  0  0  1  0  0  0  0  0  0  0  0
   -1.2404   -5.3851    0.1645 H   0  0  0  1  0  0  0  0  0  0  0  0
   -1.4181   -1.8215    0.0093 C   0  0  0  1  0  0  0  0  0  0  0  0
   -1.5263   -1.6979    1.0667 H   0  0  0  1  0  0  0  0  0  0  0  0
   -1.8588   -0.9869   -0.4948 H   0  0  0  1  0  0  0  0  0  0  0  0
    0.0512   -1.9168   -0.3470 C   0  0  0  1  0  0  0  0  0  0  0  0
    0.1667   -2.5079   -1.2314 H   0  0  0  1  0  0  0  0  0  0  0  0
    0.6166   -0.6055   -0.5330 O   0  0  0  1  0  0  0  0  0  0  0  0
    0.8340   -2.5010    0.7862 C   0  0  0  1  0  0  0  0  0  0  0  0
    0.4066   -2.2207    1.7262 H   0  0  0  1  0  0  0  0  0  0  0  0
    0.8789   -3.9253    0.6886 O   0  0  0  1  0  0  0  0  0  0  0  0
    1.1748   -4.2946    1.5238 H   0  0  0  1  0  0  0  0  0  0  0  0
    2.1798   -1.9257    0.6334 C   0  0  0  1  0  0  0  0  0  0  0  0
    2.6271   -1.7603    1.5913 H   0  0  0  1  0  0  0  0  0  0  0  0
    3.0105   -2.7953   -0.1370 O   0  0  0  1  0  0  0  0  0  0  0  0
    3.8057   -3.0021    0.3596 H   0  0  0  1  0  0  0  0  0  0  0  0
    1.9777   -0.6305   -0.0787 C   0  0  0  1  0  0  0  0  0  0  0  0
    2.6441   -0.5630   -0.9132 H   0  0  0  1  0  0  0  0  0  0  0  0
    2.2224    0.4862    0.8329 N   0  0  0  1  0  0  0  0  0  0  0  0
    3.1860    1.4412    0.7215 C   0  0  0  1  0  0  0  0  0  0  0  0
    3.8627    1.4633   -0.0679 H   0  0  0  1  0  0  0  0  0  0  0  0
    3.1967    2.3271    1.6801 N   0  0  0  1  0  0  0  0  0  0  0  0
    2.1462    1.9357    2.4956 C   0  0  0  1  0  0  0  0  0  0  0  0
    1.6078    2.4202    3.6840 C   0  0  0  1  0  0  0  0  0  0  0  0
    2.0956    3.5194    4.3287 N   0  0  0  1  0  0  0  0  0  0  0  0
    1.6759    3.8267    5.1592 H   0  0  0  1  0  0  0  0  0  0  0  0
    2.8655    4.0015    3.9611 H   0  0  0  1  0  0  0  0  0  0  0  0
    0.5634    1.7976    4.2410 N   0  0  0  1  0  0  0  0  0  0  0  0
    0.0805    0.7060    3.6268 C   0  0  0  1  0  0  0  0  0  0  0  0
   -0.7287    0.2484    4.0931 H   0  0  0  1  0  0  0  0  0  0  0  0
    0.4962    0.1319    2.5045 N   0  0  0  1  0  0  0  0  0  0  0  0
    1.5298    0.7891    1.9767 C   0  0  0  1  0  0  0  0  0  0  0  0
  1  2  1  0  0  0  0
  1  3  1  0  0  0  0
  1  4  1  0  0  0  0
  1  5  1  0  0  0  0
  5  6  1  0  0  0  0
  5  7  1  0  0  0  0
  5 10  1  0  0  0  0
  7  8  1  0  0  0  0
  7  9  2  0  0  0  0
 10 11  1  0  0  0  0
 10 12  1  0  0  0  0
 10 13  1  0  0  0  0
 13 14  1  0  0  0  0
 13 15  1  0  0  0  0
 13 16  1  0  0  0  0
 16 17  1  0  0  0  0
 16 21  1  0  0  0  0
 17 18  1  0  0  0  0
 17 19  1  0  0  0  0
 17 20  1  0  0  0  0
 21 22  1  0  0  0  0
 21 23  1  0  0  0  0
 21 24  1  0  0  0  0
 24 25  1  0  0  0  0
 24 26  1  0  0  0  0
 24 27  1  0  0  0  0
 26 35  1  0  0  0  0
 27 28  1  0  0  0  0
 27 29  1  0  0  0  0
 27 31  1  0  0  0  0
 29 30  1  0  0  0  0
 31 32  1  0  0  0  0
 31 33  1  0  0  0  0
 31 35  1  0  0  0  0
 33 34  1  0  0  0  0
 35 36  1  0  0  0  0
 35 37  1  0  0  0  0
 37 38  1  0  0  0  0
 37 50  1  0  0  0  0
 38 39  1  0  0  0  0
 38 40  2  0  0  0  0
 40 41  1  0  0  0  0
 41 42  1  0  0  0  0
 41 50  2  0  0  0  0
 42 43  1  0  0  0  0
 42 46  2  0  0  0  0
 43 44  1  0  0  0  0
 43 45  1  0  0  0  0
 46 47  1  0  0  0  0
 47 48  1  0  0  0  0
 47 49  2  0  0  0  0
 49 50  1  0  0  0  0
M  END
> <ConfClashScore>
0 

> <ConfOneFourInteractionScore>
-0.981428 

> <ConfScore>
-0.0445446 

> <ConfScorePBest>
0.0136565 

> <ConfTolerance>
1.14905 

$$$$
SAM.****
  PyMOL2.4          3D                             0

 50 52  0  0  0  0  0  0  0  0999 V2000
   -2.7153   -4.3124   -3.2798 N   0  3  0  1  0  0  0  0  0  0  0  0
   -1.9220   -4.7827   -2.7778 H   0  0  0  1  0  0  0  0  0  0  0  0
   -3.1359   -4.9802   -3.9724 H   0  0  0  1  0  0  0  0  0  0  0  0
   -3.4464   -4.0222   -2.5843 H   0  0  0  1  0  0  0  0  0  0  0  0
   -2.2053   -3.1060   -3.9984 C   0  0  0  1  0  0  0  0  0  0  0  0
   -3.0410   -2.6033   -4.4386 H   0  0  0  1  0  0  0  0  0  0  0  0
   -1.3177   -3.5602   -5.1056 C   0  0  0  1  0  0  0  0  0  0  0  0
   -0.9594   -2.5178   -5.9021 O   0  5  0  1  0  0  0  0  0  0  0  0
   -0.9335   -4.6989   -5.3160 O   0  0  0  1  0  0  0  0  0  0  0  0
   -1.5020   -2.1189   -3.0780 C   0  0  0  1  0  0  0  0  0  0  0  0
   -1.1496   -1.2979   -3.6669 H   0  0  0  1  0  0  0  0  0  0  0  0
   -0.6704   -2.6139   -2.6215 H   0  0  0  1  0  0  0  0  0  0  0  0
   -2.3887   -1.5807   -1.9941 C   0  0  0  1  0  0  0  0  0  0  0  0
   -2.7930   -2.5003   -1.6256 H   0  0  0  1  0  0  0  0  0  0  0  0
   -3.1208   -1.0847   -2.5965 H   0  0  0  1  0  0  0  0  0  0  0  0
   -2.5113   -0.5900   -0.5084 S   0  3  0  1  0  0  0  0  0  0  0  0
   -1.6261    0.8981   -0.9628 C   0  0  0  1  0  0  0  0  0  0  0  0
   -0.6195    0.8382   -0.6049 H   0  0  0  1  0  0  0  0  0  0  0  0
   -2.1094    1.7474   -0.5270 H   0  0  0  1  0  0  0  0  0  0  0  0
   -1.6202    0.9981   -2.0281 H   0  0  0  1  0  0  0  0  0  0  0  0
   -1.3656   -1.5078    0.5463 C   0  0  0  1  0  0  0  0  0  0  0  0
   -1.8476   -2.4131    0.8512 H   0  0  0  1  0  0  0  0  0  0  0  0
   -1.1541   -0.9084    1.4071 H   0  0  0  1  0  0  0  0  0  0  0  0
   -0.0486   -1.8734   -0.1070 C   0  0  0  1  0  0  0  0  0  0  0  0
   -0.2350   -2.4565   -0.9846 H   0  0  0  1  0  0  0  0  0  0  0  0
    0.6753   -0.6809   -0.4541 O   0  0  0  1  0  0  0  0  0  0  0  0
    0.8251   -2.6719    0.8800 C   0  0  0  1  0  0  0  0  0  0  0  0
    0.3392   -2.7643    1.8288 H   0  0  0  1  0  0  0  0  0  0  0  0
    1.1150   -3.9731    0.3636 O   0  0  0  1  0  0  0  0  0  0  0  0
    0.9166   -3.9968   -0.5754 H   0  0  0  1  0  0  0  0  0  0  0  0
    2.1209   -1.8269    1.0043 C   0  0  0  1  0  0  0  0  0  0  0  0
    2.0985   -1.2076    1.8767 H   0  0  0  1  0  0  0  0  0  0  0  0
    3.2811   -2.6592    1.0401 O   0  0  0  1  0  0  0  0  0  0  0  0
    4.0690   -2.1106    1.0435 H   0  0  0  1  0  0  0  0  0  0  0  0
    2.0783   -0.9762   -0.2908 C   0  0  0  1  0  0  0  0  0  0  0  0
    2.4517   -1.5318   -1.1256 H   0  0  0  1  0  0  0  0  0  0  0  0
    2.8565    0.2530   -0.1348 N   0  0  0  1  0  0  0  0  0  0  0  0
    2.3756    1.5228   -0.0394 C   0  0  0  1  0  0  0  0  0  0  0  0
    1.3586    1.7388   -0.0638 H   0  0  0  1  0  0  0  0  0  0  0  0
    3.2870    2.4489    0.0849 N   0  0  0  1  0  0  0  0  0  0  0  0
    4.4762    1.7367    0.0809 C   0  0  0  1  0  0  0  0  0  0  0  0
    5.8195    2.0905    0.1664 C   0  0  0  1  0  0  0  0  0  0  0  0
    6.2445    3.3870    0.2898 N   0  0  0  1  0  0  0  0  0  0  0  0
    5.6002    4.1224    0.2224 H   0  0  0  1  0  0  0  0  0  0  0  0
    7.1928    3.5791    0.4455 H   0  0  0  1  0  0  0  0  0  0  0  0
    6.7593    1.1397    0.1286 N   0  0  0  1  0  0  0  0  0  0  0  0
    6.3601   -0.1348   -0.0065 C   0  0  0  1  0  0  0  0  0  0  0  0
    7.1206   -0.8436   -0.0359 H   0  0  0  1  0  0  0  0  0  0  0  0
    5.1258   -0.6126   -0.1075 N   0  0  0  1  0  0  0  0  0  0  0  0
    4.2206    0.3655   -0.0542 C   0  0  0  1  0  0  0  0  0  0  0  0
  1  2  1  0  0  0  0
  1  3  1  0  0  0  0
  1  4  1  0  0  0  0
  1  5  1  0  0  0  0
  5  6  1  0  0  0  0
  5  7  1  0  0  0  0
  5 10  1  0  0  0  0
  7  8  1  0  0  0  0
  7  9  2  0  0  0  0
 10 11  1  0  0  0  0
 10 12  1  0  0  0  0
 10 13  1  0  0  0  0
 13 14  1  0  0  0  0
 13 15  1  0  0  0  0
 13 16  1  0  0  0  0
 16 17  1  0  0  0  0
 16 21  1  0  0  0  0
 17 18  1  0  0  0  0
 17 19  1  0  0  0  0
 17 20  1  0  0  0  0
 21 22  1  0  0  0  0
 21 23  1  0  0  0  0
 21 24  1  0  0  0  0
 24 25  1  0  0  0  0
 24 26  1  0  0  0  0
 24 27  1  0  0  0  0
 26 35  1  0  0  0  0
 27 28  1  0  0  0  0
 27 29  1  0  0  0  0
 27 31  1  0  0  0  0
 29 30  1  0  0  0  0
 31 32  1  0  0  0  0
 31 33  1  0  0  0  0
 31 35  1  0  0  0  0
 33 34  1  0  0  0  0
 35 36  1  0  0  0  0
 35 37  1  0  0  0  0
 37 38  1  0  0  0  0
 37 50  1  0  0  0  0
 38 39  1  0  0  0  0
 38 40  2  0  0  0  0
 40 41  1  0  0  0  0
 41 42  1  0  0  0  0
 41 50  2  0  0  0  0
 42 43  1  0  0  0  0
 42 46  2  0  0  0  0
 43 44  1  0  0  0  0
 43 45  1  0  0  0  0
 46 47  1  0  0  0  0
 47 48  1  0  0  0  0
 47 49  2  0  0  0  0
 49 50  1  0  0  0  0
M  END
> <ConfClashScore>
0 

> <ConfOneFourInteractionScore>
-0.986105 

> <ConfScore>
-0.0442129 

> <ConfScorePBest>
0.0135535 

> <ConfTolerance>
1.0699 

$$$$
SAM.****
  PyMOL2.4          3D                             0

 50 52  0  0  0  0  0  0  0  0999 V2000
   -2.8927    3.9168    1.4893 N   0  3  0  1  0  0  0  0  0  0  0  0
   -3.6545    3.3119    1.8845 H   0  0  0  1  0  0  0  0  0  0  0  0
   -3.1065    4.1371    0.4851 H   0  0  0  1  0  0  0  0  0  0  0  0
   -2.8342    4.8094    2.0391 H   0  0  0  1  0  0  0  0  0  0  0  0
   -1.5915    3.1962    1.5730 C   0  0  0  1  0  0  0  0  0  0  0  0
   -1.4719    2.7768    2.5501 H   0  0  0  1  0  0  0  0  0  0  0  0
   -0.4843    4.1587    1.3125 C   0  0  0  1  0  0  0  0  0  0  0  0
    0.7705    3.8649    1.7469 O   0  5  0  1  0  0  0  0  0  0  0  0
   -0.7276    5.1930    0.7130 O   0  0  0  1  0  0  0  0  0  0  0  0
   -1.5216    2.0865    0.5416 C   0  0  0  1  0  0  0  0  0  0  0  0
   -0.5730    1.5995    0.6311 H   0  0  0  1  0  0  0  0  0  0  0  0
   -1.6090    2.5221   -0.4318 H   0  0  0  1  0  0  0  0  0  0  0  0
   -2.5873    1.0710    0.6990 C   0  0  0  1  0  0  0  0  0  0  0  0
   -3.5308    1.5548    0.5547 H   0  0  0  1  0  0  0  0  0  0  0  0
   -2.5329    0.6842    1.6951 H   0  0  0  1  0  0  0  0  0  0  0  0
   -2.4906   -0.3053   -0.4362 S   0  3  0  1  0  0  0  0  0  0  0  0
   -4.0621   -1.1277   -0.1298 C   0  0  0  1  0  0  0  0  0  0  0  0
   -4.2249   -1.2053    0.9249 H   0  0  0  1  0  0  0  0  0  0  0  0
   -4.0416   -2.1071   -0.5602 H   0  0  0  1  0  0  0  0  0  0  0  0
   -4.8538   -0.5598   -0.5719 H   0  0  0  1  0  0  0  0  0  0  0  0
   -1.3985   -1.4424    0.4373 C   0  0  0  1  0  0  0  0  0  0  0  0
   -1.9245   -2.3673    0.5506 H   0  0  0  1  0  0  0  0  0  0  0  0
   -1.2040   -1.0217    1.4017 H   0  0  0  1  0  0  0  0  0  0  0  0
   -0.0641   -1.7567   -0.1954 C   0  0  0  1  0  0  0  0  0  0  0  0
   -0.2202   -2.2494   -1.1323 H   0  0  0  1  0  0  0  0  0  0  0  0
    0.6819   -0.5444   -0.3963 O   0  0  0  1  0  0  0  0  0  0  0  0
    0.7639   -2.6573    0.7417 C   0  0  0  1  0  0  0  0  0  0  0  0
    0.2403   -2.8361    1.6576 H   0  0  0  1  0  0  0  0  0  0  0  0
    1.0638   -3.9041    0.1128 O   0  0  0  1  0  0  0  0  0  0  0  0
    1.6326   -4.4235    0.6858 H   0  0  0  1  0  0  0  0  0  0  0  0
    2.0602   -1.8432    0.9977 C   0  0  0  1  0  0  0  0  0  0  0  0
    2.0082   -1.3116    1.9249 H   0  0  0  1  0  0  0  0  0  0  0  0
    3.2118   -2.6882    0.9965 O   0  0  0  1  0  0  0  0  0  0  0  0
    3.7906   -2.4400    0.2720 H   0  0  0  1  0  0  0  0  0  0  0  0
    2.0750   -0.8701   -0.2088 C   0  0  0  1  0  0  0  0  0  0  0  0
    2.4768   -1.3461   -1.0789 H   0  0  0  1  0  0  0  0  0  0  0  0
    2.8559    0.3291    0.0964 N   0  0  0  1  0  0  0  0  0  0  0  0
    2.3593    1.4412    0.7043 C   0  0  0  1  0  0  0  0  0  0  0  0
    1.3889    1.4895    1.0752 H   0  0  0  1  0  0  0  0  0  0  0  0
    3.1927    2.4423    0.7866 N   0  0  0  1  0  0  0  0  0  0  0  0
    4.3457    1.9547    0.1914 C   0  0  0  1  0  0  0  0  0  0  0  0
    5.6050    2.4884   -0.0665 C   0  0  0  1  0  0  0  0  0  0  0  0
    5.8615    3.7773    0.3205 N   0  0  0  1  0  0  0  0  0  0  0  0
    5.1447    4.3264    0.7014 H   0  0  0  1  0  0  0  0  0  0  0  0
    6.7618    4.1502    0.2163 H   0  0  0  1  0  0  0  0  0  0  0  0
    6.5290    1.7409   -0.6798 N   0  0  0  1  0  0  0  0  0  0  0  0
    6.1916    0.4922   -1.0387 C   0  0  0  1  0  0  0  0  0  0  0  0
    6.9358   -0.0551   -1.5165 H   0  0  0  1  0  0  0  0  0  0  0  0
    5.0364   -0.1385   -0.8661 N   0  0  0  1  0  0  0  0  0  0  0  0
    4.1484    0.6368   -0.2421 C   0  0  0  1  0  0  0  0  0  0  0  0
  1  2  1  0  0  0  0
  1  3  1  0  0  0  0
  1  4  1  0  0  0  0
  1  5  1  0  0  0  0
  5  6  1  0  0  0  0
  5  7  1  0  0  0  0
  5 10  1  0  0  0  0
  7  8  1  0  0  0  0
  7  9  2  0  0  0  0
 10 11  1  0  0  0  0
 10 12  1  0  0  0  0
 10 13  1  0  0  0  0
 13 14  1  0  0  0  0
 13 15  1  0  0  0  0
 13 16  1  0  0  0  0
 16 17  1  0  0  0  0
 16 21  1  0  0  0  0
 17 18  1  0  0  0  0
 17 19  1  0  0  0  0
 17 20  1  0  0  0  0
 21 22  1  0  0  0  0
 21 23  1  0  0  0  0
 21 24  1  0  0  0  0
 24 25  1  0  0  0  0
 24 26  1  0  0  0  0
 24 27  1  0  0  0  0
 26 35  1  0  0  0  0
 27 28  1  0  0  0  0
 27 29  1  0  0  0  0
 27 31  1  0  0  0  0
 29 30  1  0  0  0  0
 31 32  1  0  0  0  0
 31 33  1  0  0  0  0
 31 35  1  0  0  0  0
 33 34  1  0  0  0  0
 35 36  1  0  0  0  0
 35 37  1  0  0  0  0
 37 38  1  0  0  0  0
 37 50  1  0  0  0  0
 38 39  1  0  0  0  0
 38 40  2  0  0  0  0
 40 41  1  0  0  0  0
 41 42  1  0  0  0  0
 41 50  2  0  0  0  0
 42 43  1  0  0  0  0
 42 46  2  0  0  0  0
 43 44  1  0  0  0  0
 43 45  1  0  0  0  0
 46 47  1  0  0  0  0
 47 48  1  0  0  0  0
 47 49  2  0  0  0  0
 49 50  1  0  0  0  0
M  END
> <ConfClashScore>
0 

> <ConfOneFourInteractionScore>
-0.988075 

> <ConfScore>
-0.0432181 

> <ConfScorePBest>
0.0134505 

> <ConfTolerance>
1.09288 

$$$$
SAM.****
  PyMOL2.4          3D                             0

 50 52  0  0  0  0  0  0  0  0999 V2000
   -4.2993   -2.7380   -3.1367 N   0  3  0  1  0  0  0  0  0  0  0  0
   -3.2951   -2.9691   -2.9348 H   0  0  0  1  0  0  0  0  0  0  0  0
   -4.5810   -3.1716   -4.0506 H   0  0  0  1  0  0  0  0  0  0  0  0
   -4.9065   -3.1155   -2.3678 H   0  0  0  1  0  0  0  0  0  0  0  0
   -4.4628   -1.2595   -3.2177 C   0  0  0  1  0  0  0  0  0  0  0  0
   -5.4787   -1.0215   -3.4549 H   0  0  0  1  0  0  0  0  0  0  0  0
   -3.5746   -0.7494   -4.2999 C   0  0  0  1  0  0  0  0  0  0  0  0
   -3.9750    0.4715   -4.7456 O   0  5  0  1  0  0  0  0  0  0  0  0
   -2.6048   -1.3443   -4.7403 O   0  0  0  1  0  0  0  0  0  0  0  0
   -4.1014   -0.6297   -1.8695 C   0  0  0  1  0  0  0  0  0  0  0  0
   -4.8480   -0.8763   -1.1438 H   0  0  0  1  0  0  0  0  0  0  0  0
   -4.0405    0.4336   -1.9721 H   0  0  0  1  0  0  0  0  0  0  0  0
   -2.7050   -1.2011   -1.4120 C   0  0  0  1  0  0  0  0  0  0  0  0
   -1.9795   -1.1105   -2.1932 H   0  0  0  1  0  0  0  0  0  0  0  0
   -2.7883   -2.2268   -1.1190 H   0  0  0  1  0  0  0  0  0  0  0  0
   -2.2665   -0.1495    0.0112 S   0  3  0  1  0  0  0  0  0  0  0  0
   -1.2372    1.1613   -0.3570 C   0  0  0  1  0  0  0  0  0  0  0  0
   -1.2781    1.3635   -1.4069 H   0  0  0  1  0  0  0  0  0  0  0  0
   -0.2334    0.9149   -0.0802 H   0  0  0  1  0  0  0  0  0  0  0  0
   -1.5550    2.0271    0.1854 H   0  0  0  1  0  0  0  0  0  0  0  0
   -1.1285   -1.3391    0.7450 C   0  0  0  1  0  0  0  0  0  0  0  0
   -1.7068   -2.1827    1.0597 H   0  0  0  1  0  0  0  0  0  0  0  0
   -0.6843   -0.8719    1.5990 H   0  0  0  1  0  0  0  0  0  0  0  0
   -0.0051   -1.8594   -0.1202 C   0  0  0  1  0  0  0  0  0  0  0  0
   -0.4069   -2.4875   -0.8877 H   0  0  0  1  0  0  0  0  0  0  0  0
    0.7224   -0.7638   -0.7035 O   0  0  0  1  0  0  0  0  0  0  0  0
    1.0124   -2.6487    0.7402 C   0  0  0  1  0  0  0  0  0  0  0  0
    0.5768   -2.9543    1.6685 H   0  0  0  1  0  0  0  0  0  0  0  0
    1.4971   -3.7957    0.0404 O   0  0  0  1  0  0  0  0  0  0  0  0
    0.8825   -4.5243    0.1549 H   0  0  0  1  0  0  0  0  0  0  0  0
    2.1212   -1.6356    0.9637 C   0  0  0  1  0  0  0  0  0  0  0  0
    1.9284   -1.0369    1.8293 H   0  0  0  1  0  0  0  0  0  0  0  0
    3.3881   -2.2803    1.1025 O   0  0  0  1  0  0  0  0  0  0  0  0
    3.3110   -3.1993    0.8357 H   0  0  0  1  0  0  0  0  0  0  0  0
    2.0667   -0.7902   -0.3187 C   0  0  0  1  0  0  0  0  0  0  0  0
    2.6643   -1.2378   -1.0851 H   0  0  0  1  0  0  0  0  0  0  0  0
    2.5478    0.5689   -0.0541 N   0  0  0  1  0  0  0  0  0  0  0  0
    3.6422    1.1672   -0.5990 C   0  0  0  1  0  0  0  0  0  0  0  0
    4.2126    0.7178   -1.3436 H   0  0  0  1  0  0  0  0  0  0  0  0
    3.9220    2.3475   -0.1168 N   0  0  0  1  0  0  0  0  0  0  0  0
    2.9253    2.5587    0.8232 C   0  0  0  1  0  0  0  0  0  0  0  0
    2.6261    3.5934    1.7045 C   0  0  0  1  0  0  0  0  0  0  0  0
    3.3745    4.7373    1.7958 N   0  0  0  1  0  0  0  0  0  0  0  0
    4.2061    4.8210    1.2840 H   0  0  0  1  0  0  0  0  0  0  0  0
    3.0783    5.4719    2.3729 H   0  0  0  1  0  0  0  0  0  0  0  0
    1.5640    3.4913    2.5108 N   0  0  0  1  0  0  0  0  0  0  0  0
    0.8284    2.3705    2.4439 C   0  0  0  1  0  0  0  0  0  0  0  0
    0.0141    2.3277    3.0894 H   0  0  0  1  0  0  0  0  0  0  0  0
    1.0000    1.3093    1.6651 N   0  0  0  1  0  0  0  0  0  0  0  0
    2.0611    1.4566    0.8705 C   0  0  0  1  0  0  0  0  0  0  0  0
  1  2  1  0  0  0  0
  1  3  1  0  0  0  0
  1  4  1  0  0  0  0
  1  5  1  0  0  0  0
  5  6  1  0  0  0  0
  5  7  1  0  0  0  0
  5 10  1  0  0  0  0
  7  8  1  0  0  0  0
  7  9  2  0  0  0  0
 10 11  1  0  0  0  0
 10 12  1  0  0  0  0
 10 13  1  0  0  0  0
 13 14  1  0  0  0  0
 13 15  1  0  0  0  0
 13 16  1  0  0  0  0
 16 17  1  0  0  0  0
 16 21  1  0  0  0  0
 17 18  1  0  0  0  0
 17 19  1  0  0  0  0
 17 20  1  0  0  0  0
 21 22  1  0  0  0  0
 21 23  1  0  0  0  0
 21 24  1  0  0  0  0
 24 25  1  0  0  0  0
 24 26  1  0  0  0  0
 24 27  1  0  0  0  0
 26 35  1  0  0  0  0
 27 28  1  0  0  0  0
 27 29  1  0  0  0  0
 27 31  1  0  0  0  0
 29 30  1  0  0  0  0
 31 32  1  0  0  0  0
 31 33  1  0  0  0  0
 31 35  1  0  0  0  0
 33 34  1  0  0  0  0
 35 36  1  0  0  0  0
 35 37  1  0  0  0  0
 37 38  1  0  0  0  0
 37 50  1  0  0  0  0
 38 39  1  0  0  0  0
 38 40  2  0  0  0  0
 40 41  1  0  0  0  0
 41 42  1  0  0  0  0
 41 50  2  0  0  0  0
 42 43  1  0  0  0  0
 42 46  2  0  0  0  0
 43 44  1  0  0  0  0
 43 45  1  0  0  0  0
 46 47  1  0  0  0  0
 47 48  1  0  0  0  0
 47 49  2  0  0  0  0
 49 50  1  0  0  0  0
M  END
> <ConfClashScore>
0 

> <ConfOneFourInteractionScore>
-0.949423 

> <ConfScore>
-0.0419474 

> <ConfScorePBest>
0.0133475 

> <ConfTolerance>
1.09413 

$$$$
SAM.****
  PyMOL2.4          3D                             0

 50 52  0  0  0  0  0  0  0  0999 V2000
   -6.5986    0.5157   -1.2028 N   0  3  0  1  0  0  0  0  0  0  0  0
   -7.2984    0.8569   -0.4982 H   0  0  0  1  0  0  0  0  0  0  0  0
   -6.7417   -0.5112   -1.3687 H   0  0  0  1  0  0  0  0  0  0  0  0
   -6.7273    1.0377   -2.1047 H   0  0  0  1  0  0  0  0  0  0  0  0
   -5.2202    0.7477   -0.6874 C   0  0  0  1  0  0  0  0  0  0  0  0
   -5.1163    0.1991    0.2253 H   0  0  0  1  0  0  0  0  0  0  0  0
   -5.0695    2.1927   -0.3567 C   0  0  0  1  0  0  0  0  0  0  0  0
   -4.0307    2.4082    0.4942 O   0  5  0  1  0  0  0  0  0  0  0  0
   -5.7835    3.0823   -0.7896 O   0  0  0  1  0  0  0  0  0  0  0  0
   -4.1737    0.2260   -1.6531 C   0  0  0  1  0  0  0  0  0  0  0  0
   -4.1286    0.8864   -2.4938 H   0  0  0  1  0  0  0  0  0  0  0  0
   -4.4698   -0.7488   -1.9801 H   0  0  0  1  0  0  0  0  0  0  0  0
   -2.7337    0.1247   -1.0193 C   0  0  0  1  0  0  0  0  0  0  0  0
   -2.4329    1.0620   -0.6001 H   0  0  0  1  0  0  0  0  0  0  0  0
   -2.0154   -0.1876   -1.7483 H   0  0  0  1  0  0  0  0  0  0  0  0
   -2.9311   -1.1147    0.2577 S   0  3  0  1  0  0  0  0  0  0  0  0
   -3.1031   -0.1731    1.7821 C   0  0  0  1  0  0  0  0  0  0  0  0
   -3.7736   -0.6822    2.4426 H   0  0  0  1  0  0  0  0  0  0  0  0
   -3.4919    0.7985    1.5589 H   0  0  0  1  0  0  0  0  0  0  0  0
   -2.1462   -0.0759    2.2509 H   0  0  0  1  0  0  0  0  0  0  0  0
   -1.3162   -1.6871    0.4628 C   0  0  0  1  0  0  0  0  0  0  0  0
   -1.5234   -2.6953    0.7554 H   0  0  0  1  0  0  0  0  0  0  0  0
   -1.0356   -1.1161    1.3231 H   0  0  0  1  0  0  0  0  0  0  0  0
    0.0463   -1.8847   -0.1583 C   0  0  0  1  0  0  0  0  0  0  0  0
   -0.0518   -2.4475   -1.0631 H   0  0  0  1  0  0  0  0  0  0  0  0
    0.6491   -0.6095   -0.4360 O   0  0  0  1  0  0  0  0  0  0  0  0
    0.9711   -2.6270    0.8259 C   0  0  0  1  0  0  0  0  0  0  0  0
    0.4707   -2.8089    1.7540 H   0  0  0  1  0  0  0  0  0  0  0  0
    1.4088   -3.8583    0.2747 O   0  0  0  1  0  0  0  0  0  0  0  0
    0.6601   -4.4520    0.1820 H   0  0  0  1  0  0  0  0  0  0  0  0
    2.1657   -1.6564    1.0248 C   0  0  0  1  0  0  0  0  0  0  0  0
    2.0527   -1.0794    1.9187 H   0  0  0  1  0  0  0  0  0  0  0  0
    3.4063   -2.3631    1.0671 O   0  0  0  1  0  0  0  0  0  0  0  0
    3.4126   -3.0404    0.3868 H   0  0  0  1  0  0  0  0  0  0  0  0
    2.0702   -0.7623   -0.2379 C   0  0  0  1  0  0  0  0  0  0  0  0
    2.5243   -1.2408   -1.0804 H   0  0  0  1  0  0  0  0  0  0  0  0
    2.7082    0.5333   -0.0100 N   0  0  0  1  0  0  0  0  0  0  0  0
    2.2269    1.5658    0.7349 C   0  0  0  1  0  0  0  0  0  0  0  0
    1.3182    1.5161    1.2385 H   0  0  0  1  0  0  0  0  0  0  0  0
    2.9916    2.6231    0.7697 N   0  0  0  1  0  0  0  0  0  0  0  0
    4.0792    2.2629   -0.0107 C   0  0  0  1  0  0  0  0  0  0  0  0
    5.2484    2.9081   -0.4026 C   0  0  0  1  0  0  0  0  0  0  0  0
    5.5600    4.1868   -0.0223 N   0  0  0  1  0  0  0  0  0  0  0  0
    6.4156    4.5828   -0.2897 H   0  0  0  1  0  0  0  0  0  0  0  0
    4.9272    4.7055    0.5171 H   0  0  0  1  0  0  0  0  0  0  0  0
    6.1255    2.2723   -1.1870 N   0  0  0  1  0  0  0  0  0  0  0  0
    5.8284    1.0237   -1.5802 C   0  0  0  1  0  0  0  0  0  0  0  0
    6.5333    0.5652   -2.1923 H   0  0  0  1  0  0  0  0  0  0  0  0
    4.7565    0.2951   -1.2934 N   0  0  0  1  0  0  0  0  0  0  0  0
    3.9145    0.9608   -0.5017 C   0  0  0  1  0  0  0  0  0  0  0  0
  1  2  1  0  0  0  0
  1  3  1  0  0  0  0
  1  4  1  0  0  0  0
  1  5  1  0  0  0  0
  5  6  1  0  0  0  0
  5  7  1  0  0  0  0
  5 10  1  0  0  0  0
  7  8  1  0  0  0  0
  7  9  2  0  0  0  0
 10 11  1  0  0  0  0
 10 12  1  0  0  0  0
 10 13  1  0  0  0  0
 13 14  1  0  0  0  0
 13 15  1  0  0  0  0
 13 16  1  0  0  0  0
 16 17  1  0  0  0  0
 16 21  1  0  0  0  0
 17 18  1  0  0  0  0
 17 19  1  0  0  0  0
 17 20  1  0  0  0  0
 21 22  1  0  0  0  0
 21 23  1  0  0  0  0
 21 24  1  0  0  0  0
 24 25  1  0  0  0  0
 24 26  1  0  0  0  0
 24 27  1  0  0  0  0
 26 35  1  0  0  0  0
 27 28  1  0  0  0  0
 27 29  1  0  0  0  0
 27 31  1  0  0  0  0
 29 30  1  0  0  0  0
 31 32  1  0  0  0  0
 31 33  1  0  0  0  0
 31 35  1  0  0  0  0
 33 34  1  0  0  0  0
 35 36  1  0  0  0  0
 35 37  1  0  0  0  0
 37 38  1  0  0  0  0
 37 50  1  0  0  0  0
 38 39  1  0  0  0  0
 38 40  2  0  0  0  0
 40 41  1  0  0  0  0
 41 42  1  0  0  0  0
 41 50  2  0  0  0  0
 42 43  1  0  0  0  0
 42 46  2  0  0  0  0
 43 44  1  0  0  0  0
 43 45  1  0  0  0  0
 46 47  1  0  0  0  0
 47 48  1  0  0  0  0
 47 49  2  0  0  0  0
 49 50  1  0  0  0  0
M  END
> <ConfClashScore>
0 

> <ConfOneFourInteractionScore>
-0.988075 

> <ConfScore>
-0.0393853 

> <ConfScorePBest>
0.0132445 

> <ConfTolerance>
1.1007 

$$$$
SAM.****
  PyMOL2.4          3D                             0

 50 52  0  0  0  0  0  0  0  0999 V2000
   -3.4210   -4.7510    4.5871 N   0  3  0  1  0  0  0  0  0  0  0  0
   -2.7553   -4.9528    3.8006 H   0  0  0  1  0  0  0  0  0  0  0  0
   -4.3948   -4.6576    4.2058 H   0  0  0  1  0  0  0  0  0  0  0  0
   -3.3905   -5.5377    5.2818 H   0  0  0  1  0  0  0  0  0  0  0  0
   -3.0271   -3.4807    5.2585 C   0  0  0  1  0  0  0  0  0  0  0  0
   -2.0625   -3.5947    5.7075 H   0  0  0  1  0  0  0  0  0  0  0  0
   -4.0292   -3.1827    6.3200 C   0  0  0  1  0  0  0  0  0  0  0  0
   -3.8642   -2.0002    6.9714 O   0  5  0  1  0  0  0  0  0  0  0  0
   -4.9356   -3.9569    6.5799 O   0  0  0  1  0  0  0  0  0  0  0  0
   -2.9714   -2.3684    4.2408 C   0  0  0  1  0  0  0  0  0  0  0  0
   -2.6592   -1.4770    4.7436 H   0  0  0  1  0  0  0  0  0  0  0  0
   -3.9575   -2.2307    3.8489 H   0  0  0  1  0  0  0  0  0  0  0  0
   -2.0322   -2.5991    3.0720 C   0  0  0  1  0  0  0  0  0  0  0  0
   -2.3137   -3.4913    2.5528 H   0  0  0  1  0  0  0  0  0  0  0  0
   -1.0281   -2.6953    3.4289 H   0  0  0  1  0  0  0  0  0  0  0  0
   -2.1505   -1.1850    1.9608 S   0  3  0  1  0  0  0  0  0  0  0  0
   -3.8863   -1.7573    1.1378 C   0  0  0  1  0  0  0  0  0  0  0  0
   -3.8316   -2.7924    0.8723 H   0  0  0  1  0  0  0  0  0  0  0  0
   -4.0744   -1.1739    0.2608 H   0  0  0  1  0  0  0  0  0  0  0  0
   -4.6794   -1.6111    1.8409 H   0  0  0  1  0  0  0  0  0  0  0  0
   -1.3120   -1.6769    0.5351 C   0  0  0  1  0  0  0  0  0  0  0  0
   -1.8005   -1.0495   -0.1809 H   0  0  0  1  0  0  0  0  0  0  0  0
   -1.6851   -2.6760    0.4481 H   0  0  0  1  0  0  0  0  0  0  0  0
    0.0218   -1.8495   -0.1557 C   0  0  0  1  0  0  0  0  0  0  0  0
   -0.1168   -2.3863   -1.0709 H   0  0  0  1  0  0  0  0  0  0  0  0
    0.6059   -0.5637   -0.4241 O   0  0  0  1  0  0  0  0  0  0  0  0
    0.9948   -2.6152    0.7618 C   0  0  0  1  0  0  0  0  0  0  0  0
    0.5395   -2.8266    1.7067 H   0  0  0  1  0  0  0  0  0  0  0  0
    1.4136   -3.8364    0.1506 O   0  0  0  1  0  0  0  0  0  0  0  0
    0.8402   -4.5511    0.4369 H   0  0  0  1  0  0  0  0  0  0  0  0
    2.1938   -1.6447    0.9324 C   0  0  0  1  0  0  0  0  0  0  0  0
    2.1209   -1.0945    1.8472 H   0  0  0  1  0  0  0  0  0  0  0  0
    3.4383   -2.3462    0.8956 O   0  0  0  1  0  0  0  0  0  0  0  0
    3.2726   -3.2895    0.8297 H   0  0  0  1  0  0  0  0  0  0  0  0
    2.0354   -0.7149   -0.2977 C   0  0  0  1  0  0  0  0  0  0  0  0
    2.4510   -1.1664   -1.1743 H   0  0  0  1  0  0  0  0  0  0  0  0
    2.6790    0.5779   -0.0622 N   0  0  0  1  0  0  0  0  0  0  0  0
    2.0681    1.7865    0.0745 C   0  0  0  1  0  0  0  0  0  0  0  0
    1.0353    1.8995    0.0275 H   0  0  0  1  0  0  0  0  0  0  0  0
    2.8760    2.7931    0.2690 N   0  0  0  1  0  0  0  0  0  0  0  0
    4.1317    2.2058    0.2711 C   0  0  0  1  0  0  0  0  0  0  0  0
    5.4288    2.6892    0.4149 C   0  0  0  1  0  0  0  0  0  0  0  0
    5.6090    4.0338    0.6058 N   0  0  0  1  0  0  0  0  0  0  0  0
    6.5147    4.4025    0.6702 H   0  0  0  1  0  0  0  0  0  0  0  0
    4.8322    4.6269    0.6779 H   0  0  0  1  0  0  0  0  0  0  0  0
    6.4618    1.8412    0.3646 N   0  0  0  1  0  0  0  0  0  0  0  0
    6.1991    0.5407    0.1601 C   0  0  0  1  0  0  0  0  0  0  0  0
    7.0288   -0.0853    0.1232 H   0  0  0  1  0  0  0  0  0  0  0  0
    5.0235   -0.0541   -0.0015 N   0  0  0  1  0  0  0  0  0  0  0  0
    4.0217    0.8238    0.0667 C   0  0  0  1  0  0  0  0  0  0  0  0
  1  2  1  0  0  0  0
  1  3  1  0  0  0  0
  1  4  1  0  0  0  0
  1  5  1  0  0  0  0
  5  6  1  0  0  0  0
  5  7  1  0  0  0  0
  5 10  1  0  0  0  0
  7  8  1  0  0  0  0
  7  9  2  0  0  0  0
 10 11  1  0  0  0  0
 10 12  1  0  0  0  0
 10 13  1  0  0  0  0
 13 14  1  0  0  0  0
 13 15  1  0  0  0  0
 13 16  1  0  0  0  0
 16 17  1  0  0  0  0
 16 21  1  0  0  0  0
 17 18  1  0  0  0  0
 17 19  1  0  0  0  0
 17 20  1  0  0  0  0
 21 22  1  0  0  0  0
 21 23  1  0  0  0  0
 21 24  1  0  0  0  0
 24 25  1  0  0  0  0
 24 26  1  0  0  0  0
 24 27  1  0  0  0  0
 26 35  1  0  0  0  0
 27 28  1  0  0  0  0
 27 29  1  0  0  0  0
 27 31  1  0  0  0  0
 29 30  1  0  0  0  0
 31 32  1  0  0  0  0
 31 33  1  0  0  0  0
 31 35  1  0  0  0  0
 33 34  1  0  0  0  0
 35 36  1  0  0  0  0
 35 37  1  0  0  0  0
 37 38  1  0  0  0  0
 37 50  1  0  0  0  0
 38 39  1  0  0  0  0
 38 40  2  0  0  0  0
 40 41  1  0  0  0  0
 41 42  1  0  0  0  0
 41 50  2  0  0  0  0
 42 43  1  0  0  0  0
 42 46  2  0  0  0  0
 43 44  1  0  0  0  0
 43 45  1  0  0  0  0
 46 47  1  0  0  0  0
 47 48  1  0  0  0  0
 47 49  2  0  0  0  0
 49 50  1  0  0  0  0
M  END
> <ConfClashScore>
0 

> <ConfOneFourInteractionScore>
-0.993249 

> <ConfScore>
-0.0376413 

> <ConfScorePBest>
0.0131415 

> <ConfTolerance>
1.09444 

$$$$
SAM.****
  PyMOL2.4          3D                             0

 50 52  0  0  0  0  0  0  0  0999 V2000
    0.6016   -2.8238   -4.4749 N   0  3  0  1  0  0  0  0  0  0  0  0
    0.4488   -3.8117   -4.7963 H   0  0  0  1  0  0  0  0  0  0  0  0
    1.4212   -2.7922   -3.8194 H   0  0  0  1  0  0  0  0  0  0  0  0
    0.7935   -2.2114   -5.3059 H   0  0  0  1  0  0  0  0  0  0  0  0
   -0.6168   -2.3362   -3.7698 C   0  0  0  1  0  0  0  0  0  0  0  0
   -0.9557   -3.0799   -3.0792 H   0  0  0  1  0  0  0  0  0  0  0  0
   -1.6785   -2.0910   -4.7861 C   0  0  0  1  0  0  0  0  0  0  0  0
   -2.9565   -2.1172   -4.3217 O   0  5  0  1  0  0  0  0  0  0  0  0
   -1.4073   -1.8814   -5.9570 O   0  0  0  1  0  0  0  0  0  0  0  0
   -0.2886   -1.0652   -3.0102 C   0  0  0  1  0  0  0  0  0  0  0  0
   -0.0153   -0.3090   -3.7162 H   0  0  0  1  0  0  0  0  0  0  0  0
    0.5380   -1.2624   -2.3601 H   0  0  0  1  0  0  0  0  0  0  0  0
   -1.4319   -0.5539   -2.1843 C   0  0  0  1  0  0  0  0  0  0  0  0
   -2.1833   -0.4928   -2.9437 H   0  0  0  1  0  0  0  0  0  0  0  0
   -1.0650    0.4270   -1.9650 H   0  0  0  1  0  0  0  0  0  0  0  0
   -2.5285   -0.8132   -0.6876 S   0  3  0  1  0  0  0  0  0  0  0  0
   -2.8963    0.9561   -0.4474 C   0  0  0  1  0  0  0  0  0  0  0  0
   -3.6780    1.2523   -1.1155 H   0  0  0  1  0  0  0  0  0  0  0  0
   -2.0180    1.5332   -0.6484 H   0  0  0  1  0  0  0  0  0  0  0  0
   -3.2090    1.1213    0.5625 H   0  0  0  1  0  0  0  0  0  0  0  0
   -1.3752   -1.5220    0.5205 C   0  0  0  1  0  0  0  0  0  0  0  0
   -1.7944   -2.4228    0.9177 H   0  0  0  1  0  0  0  0  0  0  0  0
   -1.2228   -0.8193    1.3129 H   0  0  0  1  0  0  0  0  0  0  0  0
   -0.0442   -1.8378   -0.1233 C   0  0  0  1  0  0  0  0  0  0  0  0
   -0.2033   -2.4288   -1.0010 H   0  0  0  1  0  0  0  0  0  0  0  0
    0.6360   -0.6192   -0.4682 O   0  0  0  1  0  0  0  0  0  0  0  0
    0.8533   -2.6012    0.8701 C   0  0  0  1  0  0  0  0  0  0  0  0
    0.3657   -2.7106    1.8162 H   0  0  0  1  0  0  0  0  0  0  0  0
    1.1950   -3.8900    0.3579 O   0  0  0  1  0  0  0  0  0  0  0  0
    1.9020   -3.8021   -0.2854 H   0  0  0  1  0  0  0  0  0  0  0  0
    2.1154   -1.7076    1.0005 C   0  0  0  1  0  0  0  0  0  0  0  0
    2.0645   -1.0883    1.8716 H   0  0  0  1  0  0  0  0  0  0  0  0
    3.3061   -2.4952    1.0442 O   0  0  0  1  0  0  0  0  0  0  0  0
    3.0891   -3.4140    0.8702 H   0  0  0  1  0  0  0  0  0  0  0  0
    2.0482   -0.8610   -0.2964 C   0  0  0  1  0  0  0  0  0  0  0  0
    2.4472   -1.4032   -1.1280 H   0  0  0  1  0  0  0  0  0  0  0  0
    2.7784    0.3971   -0.1378 N   0  0  0  1  0  0  0  0  0  0  0  0
    2.2186    1.6355   -0.2140 C   0  0  0  1  0  0  0  0  0  0  0  0
    1.2035    1.7805   -0.3880 H   0  0  0  1  0  0  0  0  0  0  0  0
    3.0517    2.6273   -0.0524 N   0  0  0  1  0  0  0  0  0  0  0  0
    4.2687    1.9979    0.1582 C   0  0  0  1  0  0  0  0  0  0  0  0
    5.5664    2.4462    0.3861 C   0  0  0  1  0  0  0  0  0  0  0  0
    5.9623    3.7771    0.4637 N   0  0  0  1  0  0  0  0  0  0  0  0
    6.9145    4.0028    0.5155 H   0  0  0  1  0  0  0  0  0  0  0  0
    5.2890    4.4892    0.4666 H   0  0  0  1  0  0  0  0  0  0  0  0
    6.5545    1.5603    0.5513 N   0  0  0  1  0  0  0  0  0  0  0  0
    6.2492    0.2553    0.4749 C   0  0  0  1  0  0  0  0  0  0  0  0
    7.0452   -0.4012    0.6046 H   0  0  0  1  0  0  0  0  0  0  0  0
    5.0684   -0.3102    0.2562 N   0  0  0  1  0  0  0  0  0  0  0  0
    4.1108    0.6064    0.1085 C   0  0  0  1  0  0  0  0  0  0  0  0
  1  2  1  0  0  0  0
  1  3  1  0  0  0  0
  1  4  1  0  0  0  0
  1  5  1  0  0  0  0
  5  6  1  0  0  0  0
  5  7  1  0  0  0  0
  5 10  1  0  0  0  0
  7  8  1  0  0  0  0
  7  9  2  0  0  0  0
 10 11  1  0  0  0  0
 10 12  1  0  0  0  0
 10 13  1  0  0  0  0
 13 14  1  0  0  0  0
 13 15  1  0  0  0  0
 13 16  1  0  0  0  0
 16 17  1  0  0  0  0
 16 21  1  0  0  0  0
 17 18  1  0  0  0  0
 17 19  1  0  0  0  0
 17 20  1  0  0  0  0
 21 22  1  0  0  0  0
 21 23  1  0  0  0  0
 21 24  1  0  0  0  0
 24 25  1  0  0  0  0
 24 26  1  0  0  0  0
 24 27  1  0  0  0  0
 26 35  1  0  0  0  0
 27 28  1  0  0  0  0
 27 29  1  0  0  0  0
 27 31  1  0  0  0  0
 29 30  1  0  0  0  0
 31 32  1  0  0  0  0
 31 33  1  0  0  0  0
 31 35  1  0  0  0  0
 33 34  1  0  0  0  0
 35 36  1  0  0  0  0
 35 37  1  0  0  0  0
 37 38  1  0  0  0  0
 37 50  1  0  0  0  0
 38 39  1  0  0  0  0
 38 40  2  0  0  0  0
 40 41  1  0  0  0  0
 41 42  1  0  0  0  0
 41 50  2  0  0  0  0
 42 43  1  0  0  0  0
 42 46  2  0  0  0  0
 43 44  1  0  0  0  0
 43 45  1  0  0  0  0
 46 47  1  0  0  0  0
 47 48  1  0  0  0  0
 47 49  2  0  0  0  0
 49 50  1  0  0  0  0
M  END
> <ConfClashScore>
0 

> <ConfOneFourInteractionScore>
-0.986105 

> <ConfScore>
-0.0358524 

> <ConfScorePBest>
0.0130385 

> <ConfTolerance>
1.15842 

$$$$
SAM.****
  PyMOL2.4          3D                             0

 50 52  0  0  0  0  0  0  0  0999 V2000
   -6.1962    0.6815    1.9140 N   0  3  0  1  0  0  0  0  0  0  0  0
   -7.1774    0.9640    2.1590 H   0  0  0  1  0  0  0  0  0  0  0  0
   -5.6799    0.4162    2.7890 H   0  0  0  1  0  0  0  0  0  0  0  0
   -6.2216   -0.1391    1.2595 H   0  0  0  1  0  0  0  0  0  0  0  0
   -5.4953    1.8304    1.2486 C   0  0  0  1  0  0  0  0  0  0  0  0
   -5.1185    2.4766    2.0137 H   0  0  0  1  0  0  0  0  0  0  0  0
   -6.4347    2.6213    0.4048 C   0  0  0  1  0  0  0  0  0  0  0  0
   -6.0613    3.9266    0.3246 O   0  5  0  1  0  0  0  0  0  0  0  0
   -7.4206    2.1656   -0.1509 O   0  0  0  1  0  0  0  0  0  0  0  0
   -4.3176    1.3768    0.4076 C   0  0  0  1  0  0  0  0  0  0  0  0
   -3.7895    2.2432    0.0681 H   0  0  0  1  0  0  0  0  0  0  0  0
   -4.6916    0.8335   -0.4349 H   0  0  0  1  0  0  0  0  0  0  0  0
   -3.3093    0.4521    1.1912 C   0  0  0  1  0  0  0  0  0  0  0  0
   -3.8285   -0.3230    1.7152 H   0  0  0  1  0  0  0  0  0  0  0  0
   -2.7255    1.0221    1.8833 H   0  0  0  1  0  0  0  0  0  0  0  0
   -2.2845   -0.2268   -0.1013 S   0  3  0  1  0  0  0  0  0  0  0  0
   -3.3500   -1.4957   -0.7675 C   0  0  0  1  0  0  0  0  0  0  0  0
   -3.3551   -1.4333   -1.8357 H   0  0  0  1  0  0  0  0  0  0  0  0
   -4.3443   -1.3566   -0.3976 H   0  0  0  1  0  0  0  0  0  0  0  0
   -2.9889   -2.4575   -0.4684 H   0  0  0  1  0  0  0  0  0  0  0  0
   -1.1068   -1.2077    0.8471 C   0  0  0  1  0  0  0  0  0  0  0  0
   -1.6194   -2.0010    1.3498 H   0  0  0  1  0  0  0  0  0  0  0  0
   -0.6163   -0.5866    1.5672 H   0  0  0  1  0  0  0  0  0  0  0  0
   -0.0884   -1.7832   -0.1084 C   0  0  0  1  0  0  0  0  0  0  0  0
   -0.5907   -2.3273   -0.8807 H   0  0  0  1  0  0  0  0  0  0  0  0
    0.7093   -0.7306   -0.6791 O   0  0  0  1  0  0  0  0  0  0  0  0
    0.8930   -2.7111    0.6494 C   0  0  0  1  0  0  0  0  0  0  0  0
    0.4812   -3.0249    1.5858 H   0  0  0  1  0  0  0  0  0  0  0  0
    1.2249   -3.8584   -0.1340 O   0  0  0  1  0  0  0  0  0  0  0  0
    0.9579   -4.6535    0.3331 H   0  0  0  1  0  0  0  0  0  0  0  0
    2.1057   -1.8208    0.8563 C   0  0  0  1  0  0  0  0  0  0  0  0
    2.0197   -1.2552    1.7605 H   0  0  0  1  0  0  0  0  0  0  0  0
    3.3012   -2.5834    0.8869 O   0  0  0  1  0  0  0  0  0  0  0  0
    3.9473   -2.1442    1.4447 H   0  0  0  1  0  0  0  0  0  0  0  0
    2.0637   -0.9047   -0.3770 C   0  0  0  1  0  0  0  0  0  0  0  0
    2.5722   -1.3638   -1.1990 H   0  0  0  1  0  0  0  0  0  0  0  0
    2.6878    0.3848   -0.0749 N   0  0  0  1  0  0  0  0  0  0  0  0
    3.8533    0.8719   -0.5822 C   0  0  0  1  0  0  0  0  0  0  0  0
    4.4275    0.3441   -1.2701 H   0  0  0  1  0  0  0  0  0  0  0  0
    4.1959    2.0513   -0.1401 N   0  0  0  1  0  0  0  0  0  0  0  0
    3.1682    2.3835    0.7289 C   0  0  0  1  0  0  0  0  0  0  0  0
    2.9014    3.4812    1.5417 C   0  0  0  1  0  0  0  0  0  0  0  0
    3.7018    4.6117    1.6656 N   0  0  0  1  0  0  0  0  0  0  0  0
    4.6222    4.5996    1.3294 H   0  0  0  1  0  0  0  0  0  0  0  0
    3.3454    5.4204    2.0891 H   0  0  0  1  0  0  0  0  0  0  0  0
    1.7919    3.4993    2.2883 N   0  0  0  1  0  0  0  0  0  0  0  0
    0.9772    2.4340    2.2309 C   0  0  0  1  0  0  0  0  0  0  0  0
    0.1277    2.4846    2.8288 H   0  0  0  1  0  0  0  0  0  0  0  0
    1.1093    1.3247    1.5140 N   0  0  0  1  0  0  0  0  0  0  0  0
    2.2206    1.3522    0.7770 C   0  0  0  1  0  0  0  0  0  0  0  0
  1  2  1  0  0  0  0
  1  3  1  0  0  0  0
  1  4  1  0  0  0  0
  1  5  1  0  0  0  0
  5  6  1  0  0  0  0
  5  7  1  0  0  0  0
  5 10  1  0  0  0  0
  7  8  1  0  0  0  0
  7  9  2  0  0  0  0
 10 11  1  0  0  0  0
 10 12  1  0  0  0  0
 10 13  1  0  0  0  0
 13 14  1  0  0  0  0
 13 15  1  0  0  0  0
 13 16  1  0  0  0  0
 16 17  1  0  0  0  0
 16 21  1  0  0  0  0
 17 18  1  0  0  0  0
 17 19  1  0  0  0  0
 17 20  1  0  0  0  0
 21 22  1  0  0  0  0
 21 23  1  0  0  0  0
 21 24  1  0  0  0  0
 24 25  1  0  0  0  0
 24 26  1  0  0  0  0
 24 27  1  0  0  0  0
 26 35  1  0  0  0  0
 27 28  1  0  0  0  0
 27 29  1  0  0  0  0
 27 31  1  0  0  0  0
 29 30  1  0  0  0  0
 31 32  1  0  0  0  0
 31 33  1  0  0  0  0
 31 35  1  0  0  0  0
 33 34  1  0  0  0  0
 35 36  1  0  0  0  0
 35 37  1  0  0  0  0
 37 38  1  0  0  0  0
 37 50  1  0  0  0  0
 38 39  1  0  0  0  0
 38 40  2  0  0  0  0
 40 41  1  0  0  0  0
 41 42  1  0  0  0  0
 41 50  2  0  0  0  0
 42 43  1  0  0  0  0
 42 46  2  0  0  0  0
 43 44  1  0  0  0  0
 43 45  1  0  0  0  0
 46 47  1  0  0  0  0
 47 48  1  0  0  0  0
 47 49  2  0  0  0  0
 49 50  1  0  0  0  0
M  END
> <ConfClashScore>
0 

> <ConfOneFourInteractionScore>
-0.986105 

> <ConfScore>
-0.0311419 

> <ConfScorePBest>
0.0129355 

> <ConfTolerance>
1.09955 

$$$$
SAM.****
  PyMOL2.4          3D                             0

 50 52  0  0  0  0  0  0  0  0999 V2000
   -6.9515   -1.8128   -3.0141 N   0  3  0  1  0  0  0  0  0  0  0  0
   -7.2908   -2.7552   -2.6989 H   0  0  0  1  0  0  0  0  0  0  0  0
   -6.5482   -1.8915   -3.9803 H   0  0  0  1  0  0  0  0  0  0  0  0
   -7.7551   -1.1370   -3.0236 H   0  0  0  1  0  0  0  0  0  0  0  0
   -5.9023   -1.3230   -2.0767 C   0  0  0  1  0  0  0  0  0  0  0  0
   -6.2706   -1.4147   -1.0763 H   0  0  0  1  0  0  0  0  0  0  0  0
   -5.6305    0.1185   -2.3382 C   0  0  0  1  0  0  0  0  0  0  0  0
   -4.6985    0.7155   -1.5480 O   0  5  0  1  0  0  0  0  0  0  0  0
   -6.2626    0.6483   -3.2371 O   0  0  0  1  0  0  0  0  0  0  0  0
   -4.6412   -2.1637   -2.1957 C   0  0  0  1  0  0  0  0  0  0  0  0
   -4.2582   -2.0621   -3.1896 H   0  0  0  1  0  0  0  0  0  0  0  0
   -4.8971   -3.1868   -2.0144 H   0  0  0  1  0  0  0  0  0  0  0  0
   -3.5662   -1.7637   -1.2286 C   0  0  0  1  0  0  0  0  0  0  0  0
   -2.8514   -2.5333   -1.4327 H   0  0  0  1  0  0  0  0  0  0  0  0
   -4.0692   -1.9782   -0.3088 H   0  0  0  1  0  0  0  0  0  0  0  0
   -2.4520   -0.4693   -0.6606 S   0  3  0  1  0  0  0  0  0  0  0  0
   -1.3979   -0.3533   -2.0972 C   0  0  0  1  0  0  0  0  0  0  0  0
   -1.9968   -0.1784   -2.9664 H   0  0  0  1  0  0  0  0  0  0  0  0
   -0.8556   -1.2680   -2.2161 H   0  0  0  1  0  0  0  0  0  0  0  0
   -0.7096    0.4560   -1.9698 H   0  0  0  1  0  0  0  0  0  0  0  0
   -1.4078   -1.3846    0.5072 C   0  0  0  1  0  0  0  0  0  0  0  0
   -1.9281   -2.2628    0.8279 H   0  0  0  1  0  0  0  0  0  0  0  0
   -1.2009   -0.7630    1.3532 H   0  0  0  1  0  0  0  0  0  0  0  0
   -0.1026   -1.7912   -0.1386 C   0  0  0  1  0  0  0  0  0  0  0  0
   -0.3033   -2.3394   -1.0353 H   0  0  0  1  0  0  0  0  0  0  0  0
    0.6803   -0.6242   -0.4412 O   0  0  0  1  0  0  0  0  0  0  0  0
    0.7193   -2.6577    0.8355 C   0  0  0  1  0  0  0  0  0  0  0  0
    0.2163   -2.7548    1.7749 H   0  0  0  1  0  0  0  0  0  0  0  0
    0.9559   -3.9543    0.2851 O   0  0  0  1  0  0  0  0  0  0  0  0
    1.7896   -3.9532   -0.1909 H   0  0  0  1  0  0  0  0  0  0  0  0
    2.0508   -1.8779    1.0011 C   0  0  0  1  0  0  0  0  0  0  0  0
    2.0448   -1.2837    1.8910 H   0  0  0  1  0  0  0  0  0  0  0  0
    3.1714   -2.7643    1.0270 O   0  0  0  1  0  0  0  0  0  0  0  0
    3.9746   -2.2709    0.8455 H   0  0  0  1  0  0  0  0  0  0  0  0
    2.0657   -0.9891   -0.2688 C   0  0  0  1  0  0  0  0  0  0  0  0
    2.4248   -1.5371   -1.1148 H   0  0  0  1  0  0  0  0  0  0  0  0
    2.8982    0.1984   -0.0666 N   0  0  0  1  0  0  0  0  0  0  0  0
    2.7767    1.1324    0.9161 C   0  0  0  1  0  0  0  0  0  0  0  0
    2.0007    1.1182    1.6083 H   0  0  0  1  0  0  0  0  0  0  0  0
    3.7077    2.0473    0.9243 N   0  0  0  1  0  0  0  0  0  0  0  0
    4.5243    1.6889   -0.1370 C   0  0  0  1  0  0  0  0  0  0  0  0
    5.6807    2.2252   -0.6958 C   0  0  0  1  0  0  0  0  0  0  0  0
    6.3445    3.3721   -0.2507 N   0  0  0  1  0  0  0  0  0  0  0  0
    7.1151    3.7166   -0.7487 H   0  0  0  1  0  0  0  0  0  0  0  0
    6.0394    3.8317    0.5593 H   0  0  0  1  0  0  0  0  0  0  0  0
    6.2449    1.6290   -1.7516 N   0  0  0  1  0  0  0  0  0  0  0  0
    5.6538    0.5288   -2.2435 C   0  0  0  1  0  0  0  0  0  0  0  0
    6.1205    0.0973   -3.0667 H   0  0  0  1  0  0  0  0  0  0  0  0
    4.5540   -0.0828   -1.8212 N   0  0  0  1  0  0  0  0  0  0  0  0
    4.0303    0.5362   -0.7621 C   0  0  0  1  0  0  0  0  0  0  0  0
  1  2  1  0  0  0  0
  1  3  1  0  0  0  0
  1  4  1  0  0  0  0
  1  5  1  0  0  0  0
  5  6  1  0  0  0  0
  5  7  1  0  0  0  0
  5 10  1  0  0  0  0
  7  8  1  0  0  0  0
  7  9  2  0  0  0  0
 10 11  1  0  0  0  0
 10 12  1  0  0  0  0
 10 13  1  0  0  0  0
 13 14  1  0  0  0  0
 13 15  1  0  0  0  0
 13 16  1  0  0  0  0
 16 17  1  0  0  0  0
 16 21  1  0  0  0  0
 17 18  1  0  0  0  0
 17 19  1  0  0  0  0
 17 20  1  0  0  0  0
 21 22  1  0  0  0  0
 21 23  1  0  0  0  0
 21 24  1  0  0  0  0
 24 25  1  0  0  0  0
 24 26  1  0  0  0  0
 24 27  1  0  0  0  0
 26 35  1  0  0  0  0
 27 28  1  0  0  0  0
 27 29  1  0  0  0  0
 27 31  1  0  0  0  0
 29 30  1  0  0  0  0
 31 32  1  0  0  0  0
 31 33  1  0  0  0  0
 31 35  1  0  0  0  0
 33 34  1  0  0  0  0
 35 36  1  0  0  0  0
 35 37  1  0  0  0  0
 37 38  1  0  0  0  0
 37 50  1  0  0  0  0
 38 39  1  0  0  0  0
 38 40  2  0  0  0  0
 40 41  1  0  0  0  0
 41 42  1  0  0  0  0
 41 50  2  0  0  0  0
 42 43  1  0  0  0  0
 42 46  2  0  0  0  0
 43 44  1  0  0  0  0
 43 45  1  0  0  0  0
 46 47  1  0  0  0  0
 47 48  1  0  0  0  0
 47 49  2  0  0  0  0
 49 50  1  0  0  0  0
M  END
> <ConfClashScore>
0.000252531 

> <ConfOneFourInteractionScore>
-0.986105 

> <ConfScore>
-0.0249681 

> <ConfScorePBest>
0.0128325 

> <ConfTolerance>
1.14077 

$$$$
SAM.****
  PyMOL2.4          3D                             0

 50 52  0  0  0  0  0  0  0  0999 V2000
   -5.1221   -3.1049   -4.1872 N   0  3  0  1  0  0  0  0  0  0  0  0
   -5.7490   -2.6218   -4.8772 H   0  0  0  1  0  0  0  0  0  0  0  0
   -5.5571   -4.0155   -3.8972 H   0  0  0  1  0  0  0  0  0  0  0  0
   -4.1886   -3.2882   -4.6315 H   0  0  0  1  0  0  0  0  0  0  0  0
   -4.9385   -2.2316   -2.9799 C   0  0  0  1  0  0  0  0  0  0  0  0
   -5.8769   -2.1712   -2.4694 H   0  0  0  1  0  0  0  0  0  0  0  0
   -4.5198   -0.8468   -3.3365 C   0  0  0  1  0  0  0  0  0  0  0  0
   -5.0342    0.1585   -2.5786 O   0  5  0  1  0  0  0  0  0  0  0  0
   -3.7522   -0.6916   -4.2719 O   0  0  0  1  0  0  0  0  0  0  0  0
   -3.9555   -2.9242   -2.0558 C   0  0  0  1  0  0  0  0  0  0  0  0
   -3.0112   -2.9919   -2.5543 H   0  0  0  1  0  0  0  0  0  0  0  0
   -4.3209   -3.9082   -1.8479 H   0  0  0  1  0  0  0  0  0  0  0  0
   -3.7557   -2.2055   -0.7529 C   0  0  0  1  0  0  0  0  0  0  0  0
   -4.6984   -2.1927   -0.2468 H   0  0  0  1  0  0  0  0  0  0  0  0
   -3.4600   -1.2031   -0.9826 H   0  0  0  1  0  0  0  0  0  0  0  0
   -2.4898   -2.9033    0.4390 S   0  3  0  1  0  0  0  0  0  0  0  0
   -3.6655   -3.1214    1.8151 C   0  0  0  1  0  0  0  0  0  0  0  0
   -4.5980   -2.6602    1.5647 H   0  0  0  1  0  0  0  0  0  0  0  0
   -3.2687   -2.6664    2.6984 H   0  0  0  1  0  0  0  0  0  0  0  0
   -3.8200   -4.1657    1.9897 H   0  0  0  1  0  0  0  0  0  0  0  0
   -1.3438   -1.5260    0.6344 C   0  0  0  1  0  0  0  0  0  0  0  0
   -1.1457   -1.3654    1.6735 H   0  0  0  1  0  0  0  0  0  0  0  0
   -1.7681   -0.6399    0.2105 H   0  0  0  1  0  0  0  0  0  0  0  0
   -0.0584   -1.8704   -0.0833 C   0  0  0  1  0  0  0  0  0  0  0  0
   -0.2802   -2.4506   -0.9545 H   0  0  0  1  0  0  0  0  0  0  0  0
    0.6329   -0.6668   -0.4574 O   0  0  0  1  0  0  0  0  0  0  0  0
    0.8721   -2.6637    0.8548 C   0  0  0  1  0  0  0  0  0  0  0  0
    0.4342   -2.7678    1.8255 H   0  0  0  1  0  0  0  0  0  0  0  0
    1.1523   -3.9568    0.3168 O   0  0  0  1  0  0  0  0  0  0  0  0
    0.9270   -3.9714   -0.6163 H   0  0  0  1  0  0  0  0  0  0  0  0
    2.1619   -1.8031    0.9214 C   0  0  0  1  0  0  0  0  0  0  0  0
    2.1745   -1.1894    1.7978 H   0  0  0  1  0  0  0  0  0  0  0  0
    3.3327   -2.6209    0.8951 O   0  0  0  1  0  0  0  0  0  0  0  0
    3.9267   -2.3529    1.6001 H   0  0  0  1  0  0  0  0  0  0  0  0
    2.0457   -0.9454   -0.3646 C   0  0  0  1  0  0  0  0  0  0  0  0
    2.3848   -1.4913   -1.2201 H   0  0  0  1  0  0  0  0  0  0  0  0
    2.8155    0.2926   -0.2386 N   0  0  0  1  0  0  0  0  0  0  0  0
    3.8134    0.7259   -1.0566 C   0  0  0  1  0  0  0  0  0  0  0  0
    4.1262    0.1884   -1.8902 H   0  0  0  1  0  0  0  0  0  0  0  0
    4.3481    1.8670   -0.7162 N   0  0  0  1  0  0  0  0  0  0  0  0
    3.6418    2.2304    0.4199 C   0  0  0  1  0  0  0  0  0  0  0  0
    3.6970    3.3138    1.2917 C   0  0  0  1  0  0  0  0  0  0  0  0
    4.6281    4.3037    1.0548 N   0  0  0  1  0  0  0  0  0  0  0  0
    5.2638    4.2115    0.3147 H   0  0  0  1  0  0  0  0  0  0  0  0
    4.6538    5.0992    1.6266 H   0  0  0  1  0  0  0  0  0  0  0  0
    2.8560    3.3730    2.3299 N   0  0  0  1  0  0  0  0  0  0  0  0
    1.9900    2.3610    2.4968 C   0  0  0  1  0  0  0  0  0  0  0  0
    1.3562    2.4421    3.3174 H   0  0  0  1  0  0  0  0  0  0  0  0
    1.8333    1.2708    1.7560 N   0  0  0  1  0  0  0  0  0  0  0  0
    2.6819    1.2567    0.7271 C   0  0  0  1  0  0  0  0  0  0  0  0
  1  2  1  0  0  0  0
  1  3  1  0  0  0  0
  1  4  1  0  0  0  0
  1  5  1  0  0  0  0
  5  6  1  0  0  0  0
  5  7  1  0  0  0  0
  5 10  1  0  0  0  0
  7  8  1  0  0  0  0
  7  9  2  0  0  0  0
 10 11  1  0  0  0  0
 10 12  1  0  0  0  0
 10 13  1  0  0  0  0
 13 14  1  0  0  0  0
 13 15  1  0  0  0  0
 13 16  1  0  0  0  0
 16 17  1  0  0  0  0
 16 21  1  0  0  0  0
 17 18  1  0  0  0  0
 17 19  1  0  0  0  0
 17 20  1  0  0  0  0
 21 22  1  0  0  0  0
 21 23  1  0  0  0  0
 21 24  1  0  0  0  0
 24 25  1  0  0  0  0
 24 26  1  0  0  0  0
 24 27  1  0  0  0  0
 26 35  1  0  0  0  0
 27 28  1  0  0  0  0
 27 29  1  0  0  0  0
 27 31  1  0  0  0  0
 29 30  1  0  0  0  0
 31 32  1  0  0  0  0
 31 33  1  0  0  0  0
 31 35  1  0  0  0  0
 33 34  1  0  0  0  0
 35 36  1  0  0  0  0
 35 37  1  0  0  0  0
 37 38  1  0  0  0  0
 37 50  1  0  0  0  0
 38 39  1  0  0  0  0
 38 40  2  0  0  0  0
 40 41  1  0  0  0  0
 41 42  1  0  0  0  0
 41 50  2  0  0  0  0
 42 43  1  0  0  0  0
 42 46  2  0  0  0  0
 43 44  1  0  0  0  0
 43 45  1  0  0  0  0
 46 47  1  0  0  0  0
 47 48  1  0  0  0  0
 47 49  2  0  0  0  0
 49 50  1  0  0  0  0
M  END
> <ConfClashScore>
0 

> <ConfOneFourInteractionScore>
-0.98093 

> <ConfScore>
-0.0213738 

> <ConfScorePBest>
0.0127295 

> <ConfTolerance>
1.28249 

$$$$
SAM.****
  PyMOL2.4          3D                             0

 50 52  0  0  0  0  0  0  0  0999 V2000
   -3.9183   -3.5552   -3.1371 N   0  3  0  1  0  0  0  0  0  0  0  0
   -4.2269   -3.1720   -4.0647 H   0  0  0  1  0  0  0  0  0  0  0  0
   -4.3697   -4.4897   -2.9772 H   0  0  0  1  0  0  0  0  0  0  0  0
   -2.8741   -3.6653   -3.1341 H   0  0  0  1  0  0  0  0  0  0  0  0
   -4.3227   -2.6145   -2.0494 C   0  0  0  1  0  0  0  0  0  0  0  0
   -5.2951   -2.8942   -1.7012 H   0  0  0  1  0  0  0  0  0  0  0  0
   -4.3971   -1.2203   -2.5696 C   0  0  0  1  0  0  0  0  0  0  0  0
   -5.1995   -0.4380   -1.7990 O   0  5  0  1  0  0  0  0  0  0  0  0
   -3.8148   -0.8179   -3.5633 O   0  0  0  1  0  0  0  0  0  0  0  0
   -3.3484   -2.7447   -0.8945 C   0  0  0  1  0  0  0  0  0  0  0  0
   -2.3996   -2.3606   -1.2062 H   0  0  0  1  0  0  0  0  0  0  0  0
   -3.2506   -3.7814   -0.6484 H   0  0  0  1  0  0  0  0  0  0  0  0
   -3.7867   -1.9933    0.3509 C   0  0  0  1  0  0  0  0  0  0  0  0
   -4.6695   -2.4446    0.7533 H   0  0  0  1  0  0  0  0  0  0  0  0
   -3.9884   -0.9718    0.1044 H   0  0  0  1  0  0  0  0  0  0  0  0
   -2.3052   -2.0849    1.6980 S   0  3  0  1  0  0  0  0  0  0  0  0
   -3.1757   -0.9204    2.7350 C   0  0  0  1  0  0  0  0  0  0  0  0
   -4.2000   -0.8667    2.4301 H   0  0  0  1  0  0  0  0  0  0  0  0
   -2.7252    0.0457    2.6422 H   0  0  0  1  0  0  0  0  0  0  0  0
   -3.1236   -1.2423    3.7541 H   0  0  0  1  0  0  0  0  0  0  0  0
   -1.1630   -1.0784    0.7404 C   0  0  0  1  0  0  0  0  0  0  0  0
   -0.6361   -0.4506    1.4282 H   0  0  0  1  0  0  0  0  0  0  0  0
   -1.7472   -0.4729    0.0794 H   0  0  0  1  0  0  0  0  0  0  0  0
   -0.1301   -1.7961   -0.0986 C   0  0  0  1  0  0  0  0  0  0  0  0
   -0.6219   -2.3767   -0.8510 H   0  0  0  1  0  0  0  0  0  0  0  0
    0.7638   -0.8471   -0.7071 O   0  0  0  1  0  0  0  0  0  0  0  0
    0.7460   -2.7086    0.7948 C   0  0  0  1  0  0  0  0  0  0  0  0
    0.2631   -2.9130    1.7275 H   0  0  0  1  0  0  0  0  0  0  0  0
    1.0480   -3.9401    0.1336 O   0  0  0  1  0  0  0  0  0  0  0  0
    1.8160   -3.8212   -0.4301 H   0  0  0  1  0  0  0  0  0  0  0  0
    1.9994   -1.8759    0.9990 C   0  0  0  1  0  0  0  0  0  0  0  0
    1.8989   -1.2278    1.8445 H   0  0  0  1  0  0  0  0  0  0  0  0
    3.1483   -2.7072    1.1695 O   0  0  0  1  0  0  0  0  0  0  0  0
    3.9434   -2.1871    1.0321 H   0  0  0  1  0  0  0  0  0  0  0  0
    2.0852   -1.0726   -0.3084 C   0  0  0  1  0  0  0  0  0  0  0  0
    2.6088   -1.6321   -1.0552 H   0  0  0  1  0  0  0  0  0  0  0  0
    2.7722    0.2001   -0.0799 N   0  0  0  1  0  0  0  0  0  0  0  0
    2.2133    1.4408   -0.0483 C   0  0  0  1  0  0  0  0  0  0  0  0
    1.1944    1.5987   -0.1844 H   0  0  0  1  0  0  0  0  0  0  0  0
    3.0525    2.4175    0.1655 N   0  0  0  1  0  0  0  0  0  0  0  0
    4.2732    1.7738    0.2965 C   0  0  0  1  0  0  0  0  0  0  0  0
    5.5773    2.2035    0.5235 C   0  0  0  1  0  0  0  0  0  0  0  0
    5.9780    3.5246    0.6904 N   0  0  0  1  0  0  0  0  0  0  0  0
    5.3130    4.2443    0.6728 H   0  0  0  1  0  0  0  0  0  0  0  0
    6.9253    3.7360    0.8257 H   0  0  0  1  0  0  0  0  0  0  0  0
    6.5675    1.3074    0.5960 N   0  0  0  1  0  0  0  0  0  0  0  0
    6.2574    0.0119    0.4299 C   0  0  0  1  0  0  0  0  0  0  0  0
    7.0551   -0.6527    0.4891 H   0  0  0  1  0  0  0  0  0  0  0  0
    5.0701   -0.5354    0.2002 N   0  0  0  1  0  0  0  0  0  0  0  0
    4.1110    0.3899    0.1467 C   0  0  0  1  0  0  0  0  0  0  0  0
  1  2  1  0  0  0  0
  1  3  1  0  0  0  0
  1  4  1  0  0  0  0
  1  5  1  0  0  0  0
  5  6  1  0  0  0  0
  5  7  1  0  0  0  0
  5 10  1  0  0  0  0
  7  8  1  0  0  0  0
  7  9  2  0  0  0  0
 10 11  1  0  0  0  0
 10 12  1  0  0  0  0
 10 13  1  0  0  0  0
 13 14  1  0  0  0  0
 13 15  1  0  0  0  0
 13 16  1  0  0  0  0
 16 17  1  0  0  0  0
 16 21  1  0  0  0  0
 17 18  1  0  0  0  0
 17 19  1  0  0  0  0
 17 20  1  0  0  0  0
 21 22  1  0  0  0  0
 21 23  1  0  0  0  0
 21 24  1  0  0  0  0
 24 25  1  0  0  0  0
 24 26  1  0  0  0  0
 24 27  1  0  0  0  0
 26 35  1  0  0  0  0
 27 28  1  0  0  0  0
 27 29  1  0  0  0  0
 27 31  1  0  0  0  0
 29 30  1  0  0  0  0
 31 32  1  0  0  0  0
 31 33  1  0  0  0  0
 31 35  1  0  0  0  0
 33 34  1  0  0  0  0
 35 36  1  0  0  0  0
 35 37  1  0  0  0  0
 37 38  1  0  0  0  0
 37 50  1  0  0  0  0
 38 39  1  0  0  0  0
 38 40  2  0  0  0  0
 40 41  1  0  0  0  0
 41 42  1  0  0  0  0
 41 50  2  0  0  0  0
 42 43  1  0  0  0  0
 42 46  2  0  0  0  0
 43 44  1  0  0  0  0
 43 45  1  0  0  0  0
 46 47  1  0  0  0  0
 47 48  1  0  0  0  0
 47 49  2  0  0  0  0
 49 50  1  0  0  0  0
M  END
> <ConfClashScore>
0 

> <ConfOneFourInteractionScore>
-0.986105 

> <ConfScore>
-0.0211289 

> <ConfScorePBest>
0.0126265 

> <ConfTolerance>
1.07622 

$$$$
SAM.****
  PyMOL2.4          3D                             0

 50 52  0  0  0  0  0  0  0  0999 V2000
   -5.7711   -1.1285   -3.1073 N   0  3  0  1  0  0  0  0  0  0  0  0
   -5.0067   -0.4449   -3.3330 H   0  0  0  1  0  0  0  0  0  0  0  0
   -6.4815   -0.6667   -2.4872 H   0  0  0  1  0  0  0  0  0  0  0  0
   -6.2333   -1.4424   -3.9964 H   0  0  0  1  0  0  0  0  0  0  0  0
   -5.1922   -2.3079   -2.4059 C   0  0  0  1  0  0  0  0  0  0  0  0
   -4.4518   -2.7515   -3.0382 H   0  0  0  1  0  0  0  0  0  0  0  0
   -6.2486   -3.3248   -2.1413 C   0  0  0  1  0  0  0  0  0  0  0  0
   -5.8917   -4.1716   -1.1387 O   0  5  0  1  0  0  0  0  0  0  0  0
   -7.3072   -3.3990   -2.7431 O   0  0  0  1  0  0  0  0  0  0  0  0
   -4.5124   -1.8422   -1.1327 C   0  0  0  1  0  0  0  0  0  0  0  0
   -5.2744   -1.5634   -0.4353 H   0  0  0  1  0  0  0  0  0  0  0  0
   -3.9162   -0.9864   -1.3715 H   0  0  0  1  0  0  0  0  0  0  0  0
   -3.6149   -2.8639   -0.4604 C   0  0  0  1  0  0  0  0  0  0  0  0
   -2.8376   -3.1605   -1.1333 H   0  0  0  1  0  0  0  0  0  0  0  0
   -4.1904   -3.7211   -0.1794 H   0  0  0  1  0  0  0  0  0  0  0  0
   -2.9021   -2.1165    0.9897 S   0  3  0  1  0  0  0  0  0  0  0  0
   -3.8399   -0.6104    1.0501 C   0  0  0  1  0  0  0  0  0  0  0  0
   -4.8686   -0.8374    1.2376 H   0  0  0  1  0  0  0  0  0  0  0  0
   -3.7527   -0.0985    0.1146 H   0  0  0  1  0  0  0  0  0  0  0  0
   -3.4636    0.0125    1.8345 H   0  0  0  1  0  0  0  0  0  0  0  0
   -1.3744   -1.5359    0.4361 C   0  0  0  1  0  0  0  0  0  0  0  0
   -1.0677   -0.9927    1.3055 H   0  0  0  1  0  0  0  0  0  0  0  0
   -1.7088   -0.8500   -0.3140 H   0  0  0  1  0  0  0  0  0  0  0  0
   -0.0166   -1.8816   -0.1318 C   0  0  0  1  0  0  0  0  0  0  0  0
   -0.1385   -2.4880   -1.0049 H   0  0  0  1  0  0  0  0  0  0  0  0
    0.6972   -0.6790   -0.4647 O   0  0  0  1  0  0  0  0  0  0  0  0
    0.8180   -2.6364    0.9212 C   0  0  0  1  0  0  0  0  0  0  0  0
    0.2809   -2.7205    1.8428 H   0  0  0  1  0  0  0  0  0  0  0  0
    1.1676   -3.9395    0.4525 O   0  0  0  1  0  0  0  0  0  0  0  0
    1.2652   -3.9211   -0.5023 H   0  0  0  1  0  0  0  0  0  0  0  0
    2.0840   -1.7566    1.0993 C   0  0  0  1  0  0  0  0  0  0  0  0
    1.9970   -1.1194    1.9545 H   0  0  0  1  0  0  0  0  0  0  0  0
    3.2568   -2.5564    1.2195 O   0  0  0  1  0  0  0  0  0  0  0  0
    3.6829   -2.6311    0.3625 H   0  0  0  1  0  0  0  0  0  0  0  0
    2.0952   -0.9354   -0.2154 C   0  0  0  1  0  0  0  0  0  0  0  0
    2.5289   -1.4993   -1.0147 H   0  0  0  1  0  0  0  0  0  0  0  0
    2.8337    0.3161   -0.0438 N   0  0  0  1  0  0  0  0  0  0  0  0
    2.7079    1.2107    0.9743 C   0  0  0  1  0  0  0  0  0  0  0  0
    2.0453    1.0703    1.7635 H   0  0  0  1  0  0  0  0  0  0  0  0
    3.4817    2.2583    0.8856 N   0  0  0  1  0  0  0  0  0  0  0  0
    4.1900    2.0404   -0.2859 C   0  0  0  1  0  0  0  0  0  0  0  0
    5.1640    2.7541   -0.9779 C   0  0  0  1  0  0  0  0  0  0  0  0
    5.6535    3.9596   -0.5489 N   0  0  0  1  0  0  0  0  0  0  0  0
    6.3831    4.3942   -1.0379 H   0  0  0  1  0  0  0  0  0  0  0  0
    5.2739    4.3873    0.2469 H   0  0  0  1  0  0  0  0  0  0  0  0
    5.6621    2.2622   -2.1175 N   0  0  0  1  0  0  0  0  0  0  0  0
    5.1828    1.0887   -2.5592 C   0  0  0  1  0  0  0  0  0  0  0  0
    5.5922    0.7423   -3.4502 H   0  0  0  1  0  0  0  0  0  0  0  0
    4.2568    0.3107   -2.0122 N   0  0  0  1  0  0  0  0  0  0  0  0
    3.7955    0.8312   -0.8741 C   0  0  0  1  0  0  0  0  0  0  0  0
  1  2  1  0  0  0  0
  1  3  1  0  0  0  0
  1  4  1  0  0  0  0
  1  5  1  0  0  0  0
  5  6  1  0  0  0  0
  5  7  1  0  0  0  0
  5 10  1  0  0  0  0
  7  8  1  0  0  0  0
  7  9  2  0  0  0  0
 10 11  1  0  0  0  0
 10 12  1  0  0  0  0
 10 13  1  0  0  0  0
 13 14  1  0  0  0  0
 13 15  1  0  0  0  0
 13 16  1  0  0  0  0
 16 17  1  0  0  0  0
 16 21  1  0  0  0  0
 17 18  1  0  0  0  0
 17 19  1  0  0  0  0
 17 20  1  0  0  0  0
 21 22  1  0  0  0  0
 21 23  1  0  0  0  0
 21 24  1  0  0  0  0
 24 25  1  0  0  0  0
 24 26  1  0  0  0  0
 24 27  1  0  0  0  0
 26 35  1  0  0  0  0
 27 28  1  0  0  0  0
 27 29  1  0  0  0  0
 27 31  1  0  0  0  0
 29 30  1  0  0  0  0
 31 32  1  0  0  0  0
 31 33  1  0  0  0  0
 31 35  1  0  0  0  0
 33 34  1  0  0  0  0
 35 36  1  0  0  0  0
 35 37  1  0  0  0  0
 37 38  1  0  0  0  0
 37 50  1  0  0  0  0
 38 39  1  0  0  0  0
 38 40  2  0  0  0  0
 40 41  1  0  0  0  0
 41 42  1  0  0  0  0
 41 50  2  0  0  0  0
 42 43  1  0  0  0  0
 42 46  2  0  0  0  0
 43 44  1  0  0  0  0
 43 45  1  0  0  0  0
 46 47  1  0  0  0  0
 47 48  1  0  0  0  0
 47 49  2  0  0  0  0
 49 50  1  0  0  0  0
M  END
> <ConfClashScore>
0 

> <ConfOneFourInteractionScore>
-0.984131 

> <ConfScore>
-0.0161148 

> <ConfScorePBest>
0.0125235 

> <ConfTolerance>
1.04096 

$$$$
SAM.****
  PyMOL2.4          3D                             0

 50 52  0  0  0  0  0  0  0  0999 V2000
   -1.5038   -6.3522    0.3931 N   0  3  0  1  0  0  0  0  0  0  0  0
   -2.1676   -7.1122    0.1028 H   0  0  0  1  0  0  0  0  0  0  0  0
   -0.9372   -6.6778    1.2149 H   0  0  0  1  0  0  0  0  0  0  0  0
   -0.8625   -6.1238   -0.4064 H   0  0  0  1  0  0  0  0  0  0  0  0
   -2.2760   -5.1356    0.7732 C   0  0  0  1  0  0  0  0  0  0  0  0
   -1.6116   -4.4472    1.2524 H   0  0  0  1  0  0  0  0  0  0  0  0
   -3.3417   -5.5030    1.7475 C   0  0  0  1  0  0  0  0  0  0  0  0
   -3.6107   -4.4836    2.6067 O   0  5  0  1  0  0  0  0  0  0  0  0
   -3.9103   -6.5819    1.7807 O   0  0  0  1  0  0  0  0  0  0  0  0
   -2.8513   -4.4573   -0.4607 C   0  0  0  1  0  0  0  0  0  0  0  0
   -3.5991   -5.0894   -0.8919 H   0  0  0  1  0  0  0  0  0  0  0  0
   -2.0669   -4.2964   -1.1704 H   0  0  0  1  0  0  0  0  0  0  0  0
   -3.4696   -3.1368   -0.1025 C   0  0  0  1  0  0  0  0  0  0  0  0
   -4.5031   -3.3147    0.1095 H   0  0  0  1  0  0  0  0  0  0  0  0
   -3.3849   -2.5012   -0.9591 H   0  0  0  1  0  0  0  0  0  0  0  0
   -2.7776   -2.2434    1.3017 S   0  3  0  1  0  0  0  0  0  0  0  0
   -3.8617   -0.8245    1.2959 C   0  0  0  1  0  0  0  0  0  0  0  0
   -3.7546   -0.2894    2.2163 H   0  0  0  1  0  0  0  0  0  0  0  0
   -4.8751   -1.1507    1.1891 H   0  0  0  1  0  0  0  0  0  0  0  0
   -3.6049   -0.1831    0.4788 H   0  0  0  1  0  0  0  0  0  0  0  0
   -1.3317   -1.5992    0.6148 C   0  0  0  1  0  0  0  0  0  0  0  0
   -0.9633   -1.0555    1.4595 H   0  0  0  1  0  0  0  0  0  0  0  0
   -1.7607   -0.9174   -0.0895 H   0  0  0  1  0  0  0  0  0  0  0  0
   -0.0226   -1.8869   -0.0847 C   0  0  0  1  0  0  0  0  0  0  0  0
   -0.2043   -2.4932   -0.9475 H   0  0  0  1  0  0  0  0  0  0  0  0
    0.6074   -0.6548   -0.4741 O   0  0  0  1  0  0  0  0  0  0  0  0
    0.9393   -2.6129    0.8759 C   0  0  0  1  0  0  0  0  0  0  0  0
    0.4978   -2.7233    1.8442 H   0  0  0  1  0  0  0  0  0  0  0  0
    1.2898   -3.8856    0.3689 O   0  0  0  1  0  0  0  0  0  0  0  0
    1.2331   -3.8756   -0.5894 H   0  0  0  1  0  0  0  0  0  0  0  0
    2.1808   -1.6836    0.9389 C   0  0  0  1  0  0  0  0  0  0  0  0
    2.1518   -1.0549    1.8042 H   0  0  0  1  0  0  0  0  0  0  0  0
    3.3936   -2.4380    0.9380 O   0  0  0  1  0  0  0  0  0  0  0  0
    3.2696   -3.2447    1.4434 H   0  0  0  1  0  0  0  0  0  0  0  0
    2.0321   -0.8559   -0.3633 C   0  0  0  1  0  0  0  0  0  0  0  0
    2.4083   -1.3977   -1.2058 H   0  0  0  1  0  0  0  0  0  0  0  0
    2.7329    0.4225   -0.2525 N   0  0  0  1  0  0  0  0  0  0  0  0
    3.5790    0.9766   -1.1635 C   0  0  0  1  0  0  0  0  0  0  0  0
    3.8061    0.5164   -2.0681 H   0  0  0  1  0  0  0  0  0  0  0  0
    4.0838    2.1292   -0.8163 N   0  0  0  1  0  0  0  0  0  0  0  0
    3.5206    2.3688    0.4275 C   0  0  0  1  0  0  0  0  0  0  0  0
    3.6287    3.3963    1.3600 C   0  0  0  1  0  0  0  0  0  0  0  0
    4.4038    4.5556    1.2631 N   0  0  0  1  0  0  0  0  0  0  0  0
    4.9602    4.7083    0.4709 H   0  0  0  1  0  0  0  0  0  0  0  0
    4.3909    5.2156    1.9874 H   0  0  0  1  0  0  0  0  0  0  0  0
    2.9375    3.3297    2.5030 N   0  0  0  1  0  0  0  0  0  0  0  0
    2.1675    2.2500    2.7109 C   0  0  0  1  0  0  0  0  0  0  0  0
    1.6497    2.2337    3.6127 H   0  0  0  1  0  0  0  0  0  0  0  0
    1.9777    1.2003    1.9210 N   0  0  0  1  0  0  0  0  0  0  0  0
    2.6748    1.3117    0.7894 C   0  0  0  1  0  0  0  0  0  0  0  0
  1  2  1  0  0  0  0
  1  3  1  0  0  0  0
  1  4  1  0  0  0  0
  1  5  1  0  0  0  0
  5  6  1  0  0  0  0
  5  7  1  0  0  0  0
  5 10  1  0  0  0  0
  7  8  1  0  0  0  0
  7  9  2  0  0  0  0
 10 11  1  0  0  0  0
 10 12  1  0  0  0  0
 10 13  1  0  0  0  0
 13 14  1  0  0  0  0
 13 15  1  0  0  0  0
 13 16  1  0  0  0  0
 16 17  1  0  0  0  0
 16 21  1  0  0  0  0
 17 18  1  0  0  0  0
 17 19  1  0  0  0  0
 17 20  1  0  0  0  0
 21 22  1  0  0  0  0
 21 23  1  0  0  0  0
 21 24  1  0  0  0  0
 24 25  1  0  0  0  0
 24 26  1  0  0  0  0
 24 27  1  0  0  0  0
 26 35  1  0  0  0  0
 27 28  1  0  0  0  0
 27 29  1  0  0  0  0
 27 31  1  0  0  0  0
 29 30  1  0  0  0  0
 31 32  1  0  0  0  0
 31 33  1  0  0  0  0
 31 35  1  0  0  0  0
 33 34  1  0  0  0  0
 35 36  1  0  0  0  0
 35 37  1  0  0  0  0
 37 38  1  0  0  0  0
 37 50  1  0  0  0  0
 38 39  1  0  0  0  0
 38 40  2  0  0  0  0
 40 41  1  0  0  0  0
 41 42  1  0  0  0  0
 41 50  2  0  0  0  0
 42 43  1  0  0  0  0
 42 46  2  0  0  0  0
 43 44  1  0  0  0  0
 43 45  1  0  0  0  0
 46 47  1  0  0  0  0
 47 48  1  0  0  0  0
 47 49  2  0  0  0  0
 49 50  1  0  0  0  0
M  END
> <ConfClashScore>
0 

> <ConfOneFourInteractionScore>
-0.961867 

> <ConfScore>
-0.0149758 

> <ConfScorePBest>
0.0124205 

> <ConfTolerance>
1.17485 

$$$$
SAM.****
  PyMOL2.4          3D                             0

 50 52  0  0  0  0  0  0  0  0999 V2000
   -4.7816   -4.7714    0.7395 N   0  3  0  1  0  0  0  0  0  0  0  0
   -4.3672   -4.0896    1.4220 H   0  0  0  1  0  0  0  0  0  0  0  0
   -4.0884   -5.5355    0.5439 H   0  0  0  1  0  0  0  0  0  0  0  0
   -5.6555   -5.1869    1.1471 H   0  0  0  1  0  0  0  0  0  0  0  0
   -5.1153   -4.0605   -0.5385 C   0  0  0  1  0  0  0  0  0  0  0  0
   -6.0324   -3.5309   -0.3858 H   0  0  0  1  0  0  0  0  0  0  0  0
   -5.3590   -5.0755   -1.6017 C   0  0  0  1  0  0  0  0  0  0  0  0
   -6.0291   -4.6311   -2.6986 O   0  5  0  1  0  0  0  0  0  0  0  0
   -4.9775   -6.2284   -1.4853 O   0  0  0  1  0  0  0  0  0  0  0  0
   -4.0533   -3.0386   -0.8964 C   0  0  0  1  0  0  0  0  0  0  0  0
   -4.2409   -2.7045   -1.8955 H   0  0  0  1  0  0  0  0  0  0  0  0
   -3.1010   -3.5248   -0.8554 H   0  0  0  1  0  0  0  0  0  0  0  0
   -3.9934   -1.8172    0.0013 C   0  0  0  1  0  0  0  0  0  0  0  0
   -3.8907   -2.1232    1.0214 H   0  0  0  1  0  0  0  0  0  0  0  0
   -4.8888   -1.2422   -0.1107 H   0  0  0  1  0  0  0  0  0  0  0  0
   -2.5779   -0.8321   -0.4801 S   0  3  0  1  0  0  0  0  0  0  0  0
   -2.1217   -1.5673   -2.0442 C   0  0  0  1  0  0  0  0  0  0  0  0
   -1.1649   -1.1964   -2.3476 H   0  0  0  1  0  0  0  0  0  0  0  0
   -2.8527   -1.3145   -2.7835 H   0  0  0  1  0  0  0  0  0  0  0  0
   -2.0743   -2.6309   -1.9377 H   0  0  0  1  0  0  0  0  0  0  0  0
   -1.3364   -1.5491    0.6235 C   0  0  0  1  0  0  0  0  0  0  0  0
   -1.7329   -2.4483    1.0468 H   0  0  0  1  0  0  0  0  0  0  0  0
   -1.1271   -0.8485    1.4047 H   0  0  0  1  0  0  0  0  0  0  0  0
   -0.0461   -1.8782   -0.0893 C   0  0  0  1  0  0  0  0  0  0  0  0
   -0.2591   -2.4533   -0.9661 H   0  0  0  1  0  0  0  0  0  0  0  0
    0.6382   -0.6668   -0.4507 O   0  0  0  1  0  0  0  0  0  0  0  0
    0.8854   -2.6718    0.8476 C   0  0  0  1  0  0  0  0  0  0  0  0
    0.4432   -2.7866    1.8152 H   0  0  0  1  0  0  0  0  0  0  0  0
    1.1778   -3.9587    0.3013 O   0  0  0  1  0  0  0  0  0  0  0  0
    0.7261   -4.0600   -0.5397 H   0  0  0  1  0  0  0  0  0  0  0  0
    2.1684   -1.8024    0.9275 C   0  0  0  1  0  0  0  0  0  0  0  0
    2.1719   -1.1953    1.8086 H   0  0  0  1  0  0  0  0  0  0  0  0
    3.3459   -2.6117    0.9011 O   0  0  0  1  0  0  0  0  0  0  0  0
    3.9965   -2.2506    1.5077 H   0  0  0  1  0  0  0  0  0  0  0  0
    2.0526   -0.9357   -0.3525 C   0  0  0  1  0  0  0  0  0  0  0  0
    2.4001   -1.4725   -1.2104 H   0  0  0  1  0  0  0  0  0  0  0  0
    2.8136    0.3087   -0.2128 N   0  0  0  1  0  0  0  0  0  0  0  0
    2.7485    1.2001    0.8137 C   0  0  0  1  0  0  0  0  0  0  0  0
    2.1243    1.0634    1.6343 H   0  0  0  1  0  0  0  0  0  0  0  0
    3.5284    2.2396    0.6906 N   0  0  0  1  0  0  0  0  0  0  0  0
    4.1751    2.0191   -0.5155 C   0  0  0  1  0  0  0  0  0  0  0  0
    5.1214    2.7252   -1.2524 C   0  0  0  1  0  0  0  0  0  0  0  0
    5.6876    3.9425   -0.8898 N   0  0  0  1  0  0  0  0  0  0  0  0
    6.3314    4.3802   -1.4851 H   0  0  0  1  0  0  0  0  0  0  0  0
    5.4429    4.3627   -0.0389 H   0  0  0  1  0  0  0  0  0  0  0  0
    5.5567    2.2330   -2.4172 N   0  0  0  1  0  0  0  0  0  0  0  0
    5.0431    1.0667   -2.8390 C   0  0  0  1  0  0  0  0  0  0  0  0
    5.4039    0.7198   -3.7506 H   0  0  0  1  0  0  0  0  0  0  0  0
    4.1369    0.2964   -2.2496 N   0  0  0  1  0  0  0  0  0  0  0  0
    3.7385    0.8169   -1.0880 C   0  0  0  1  0  0  0  0  0  0  0  0
  1  2  1  0  0  0  0
  1  3  1  0  0  0  0
  1  4  1  0  0  0  0
  1  5  1  0  0  0  0
  5  6  1  0  0  0  0
  5  7  1  0  0  0  0
  5 10  1  0  0  0  0
  7  8  1  0  0  0  0
  7  9  2  0  0  0  0
 10 11  1  0  0  0  0
 10 12  1  0  0  0  0
 10 13  1  0  0  0  0
 13 14  1  0  0  0  0
 13 15  1  0  0  0  0
 13 16  1  0  0  0  0
 16 17  1  0  0  0  0
 16 21  1  0  0  0  0
 17 18  1  0  0  0  0
 17 19  1  0  0  0  0
 17 20  1  0  0  0  0
 21 22  1  0  0  0  0
 21 23  1  0  0  0  0
 21 24  1  0  0  0  0
 24 25  1  0  0  0  0
 24 26  1  0  0  0  0
 24 27  1  0  0  0  0
 26 35  1  0  0  0  0
 27 28  1  0  0  0  0
 27 29  1  0  0  0  0
 27 31  1  0  0  0  0
 29 30  1  0  0  0  0
 31 32  1  0  0  0  0
 31 33  1  0  0  0  0
 31 35  1  0  0  0  0
 33 34  1  0  0  0  0
 35 36  1  0  0  0  0
 35 37  1  0  0  0  0
 37 38  1  0  0  0  0
 37 50  1  0  0  0  0
 38 39  1  0  0  0  0
 38 40  2  0  0  0  0
 40 41  1  0  0  0  0
 41 42  1  0  0  0  0
 41 50  2  0  0  0  0
 42 43  1  0  0  0  0
 42 46  2  0  0  0  0
 43 44  1  0  0  0  0
 43 45  1  0  0  0  0
 46 47  1  0  0  0  0
 47 48  1  0  0  0  0
 47 49  2  0  0  0  0
 49 50  1  0  0  0  0
M  END
> <ConfClashScore>
0 

> <ConfOneFourInteractionScore>
-0.96848 

> <ConfScore>
-0.012641 

> <ConfScorePBest>
0.0123175 

> <ConfTolerance>
1.14137 

$$$$
SAM.****
  PyMOL2.4          3D                             0

 50 52  0  0  0  0  0  0  0  0999 V2000
   -0.5449   -5.2933    3.2147 N   0  3  0  1  0  0  0  0  0  0  0  0
   -0.3930   -6.1605    3.7869 H   0  0  0  1  0  0  0  0  0  0  0  0
    0.2794   -4.6524    3.3255 H   0  0  0  1  0  0  0  0  0  0  0  0
   -0.6515   -5.5556    2.2036 H   0  0  0  1  0  0  0  0  0  0  0  0
   -1.7786   -4.6001    3.6804 C   0  0  0  1  0  0  0  0  0  0  0  0
   -1.6352   -4.2402    4.6778 H   0  0  0  1  0  0  0  0  0  0  0  0
   -2.8989   -5.5824    3.6701 C   0  0  0  1  0  0  0  0  0  0  0  0
   -3.8305   -5.4243    4.6483 O   0  5  0  1  0  0  0  0  0  0  0  0
   -2.9662   -6.4676    2.8333 O   0  0  0  1  0  0  0  0  0  0  0  0
   -2.0768   -3.4270    2.7666 C   0  0  0  1  0  0  0  0  0  0  0  0
   -1.2086   -2.8033    2.7210 H   0  0  0  1  0  0  0  0  0  0  0  0
   -2.8932   -2.8732    3.1809 H   0  0  0  1  0  0  0  0  0  0  0  0
   -2.4454   -3.8434    1.3528 C   0  0  0  1  0  0  0  0  0  0  0  0
   -3.2602   -4.5354    1.4010 H   0  0  0  1  0  0  0  0  0  0  0  0
   -1.5986   -4.3194    0.9041 H   0  0  0  1  0  0  0  0  0  0  0  0
   -2.9364   -2.4416    0.3200 S   0  3  0  1  0  0  0  0  0  0  0  0
   -3.4677   -3.2765   -1.1816 C   0  0  0  1  0  0  0  0  0  0  0  0
   -3.5090   -4.3316   -1.0082 H   0  0  0  1  0  0  0  0  0  0  0  0
   -2.7722   -3.0716   -1.9685 H   0  0  0  1  0  0  0  0  0  0  0  0
   -4.4381   -2.9231   -1.4616 H   0  0  0  1  0  0  0  0  0  0  0  0
   -1.4230   -1.7169   -0.0824 C   0  0  0  1  0  0  0  0  0  0  0  0
   -1.3428   -1.0187    0.7245 H   0  0  0  1  0  0  0  0  0  0  0  0
   -1.7078   -1.2000   -0.9749 H   0  0  0  1  0  0  0  0  0  0  0  0
    0.0440   -1.9265   -0.3751 C   0  0  0  1  0  0  0  0  0  0  0  0
    0.1510   -2.6026   -1.1975 H   0  0  0  1  0  0  0  0  0  0  0  0
    0.6747   -0.7054   -0.6508 O   0  0  0  1  0  0  0  0  0  0  0  0
    0.7755   -2.4589    0.8656 C   0  0  0  1  0  0  0  0  0  0  0  0
    0.3591   -2.0518    1.7632 H   0  0  0  1  0  0  0  0  0  0  0  0
    0.7250   -3.8852    0.9206 O   0  0  0  1  0  0  0  0  0  0  0  0
    1.5412   -4.2204    1.2988 H   0  0  0  1  0  0  0  0  0  0  0  0
    2.1852   -1.9733    0.6521 C   0  0  0  1  0  0  0  0  0  0  0  0
    2.6934   -1.8478    1.5854 H   0  0  0  1  0  0  0  0  0  0  0  0
    2.9197   -2.8791   -0.1726 O   0  0  0  1  0  0  0  0  0  0  0  0
    3.7626   -3.0780    0.2415 H   0  0  0  1  0  0  0  0  0  0  0  0
    1.9875   -0.6271   -0.0511 C   0  0  0  1  0  0  0  0  0  0  0  0
    2.7356   -0.4823   -0.8023 H   0  0  0  1  0  0  0  0  0  0  0  0
    2.0463    0.4712    0.9154 N   0  0  0  1  0  0  0  0  0  0  0  0
    0.9714    1.1882    1.3434 C   0  0  0  1  0  0  0  0  0  0  0  0
    0.0043    0.9980    1.0113 H   0  0  0  1  0  0  0  0  0  0  0  0
    1.2457    2.1324    2.2019 N   0  0  0  1  0  0  0  0  0  0  0  0
    2.6182    2.0316    2.3677 C   0  0  0  1  0  0  0  0  0  0  0  0
    3.5581    2.7275    3.1223 C   0  0  0  1  0  0  0  0  0  0  0  0
    3.2319    3.7688    3.9413 N   0  0  0  1  0  0  0  0  0  0  0  0
    3.9385    4.2870    4.3802 H   0  0  0  1  0  0  0  0  0  0  0  0
    2.2910    3.9985    4.0908 H   0  0  0  1  0  0  0  0  0  0  0  0
    4.8479    2.3792    3.0597 N   0  0  0  1  0  0  0  0  0  0  0  0
    5.1875    1.3658    2.2475 C   0  0  0  1  0  0  0  0  0  0  0  0
    6.1998    1.1284    2.2236 H   0  0  0  1  0  0  0  0  0  0  0  0
    4.4058    0.6258    1.4707 N   0  0  0  1  0  0  0  0  0  0  0  0
    3.1290    0.9979    1.5713 C   0  0  0  1  0  0  0  0  0  0  0  0
  1  2  1  0  0  0  0
  1  3  1  0  0  0  0
  1  4  1  0  0  0  0
  1  5  1  0  0  0  0
  5  6  1  0  0  0  0
  5  7  1  0  0  0  0
  5 10  1  0  0  0  0
  7  8  1  0  0  0  0
  7  9  2  0  0  0  0
 10 11  1  0  0  0  0
 10 12  1  0  0  0  0
 10 13  1  0  0  0  0
 13 14  1  0  0  0  0
 13 15  1  0  0  0  0
 13 16  1  0  0  0  0
 16 17  1  0  0  0  0
 16 21  1  0  0  0  0
 17 18  1  0  0  0  0
 17 19  1  0  0  0  0
 17 20  1  0  0  0  0
 21 22  1  0  0  0  0
 21 23  1  0  0  0  0
 21 24  1  0  0  0  0
 24 25  1  0  0  0  0
 24 26  1  0  0  0  0
 24 27  1  0  0  0  0
 26 35  1  0  0  0  0
 27 28  1  0  0  0  0
 27 29  1  0  0  0  0
 27 31  1  0  0  0  0
 29 30  1  0  0  0  0
 31 32  1  0  0  0  0
 31 33  1  0  0  0  0
 31 35  1  0  0  0  0
 33 34  1  0  0  0  0
 35 36  1  0  0  0  0
 35 37  1  0  0  0  0
 37 38  1  0  0  0  0
 37 50  1  0  0  0  0
 38 39  1  0  0  0  0
 38 40  2  0  0  0  0
 40 41  1  0  0  0  0
 41 42  1  0  0  0  0
 41 50  2  0  0  0  0
 42 43  1  0  0  0  0
 42 46  2  0  0  0  0
 43 44  1  0  0  0  0
 43 45  1  0  0  0  0
 46 47  1  0  0  0  0
 47 48  1  0  0  0  0
 47 49  2  0  0  0  0
 49 50  1  0  0  0  0
M  END
> <ConfClashScore>
0 

> <ConfOneFourInteractionScore>
-0.984481 

> <ConfScore>
-0.0123269 

> <ConfScorePBest>
0.0122145 

> <ConfTolerance>
1.16968 

$$$$
SAM.****
  PyMOL2.4          3D                             0

 50 52  0  0  0  0  0  0  0  0999 V2000
   -4.9821   -2.0379    4.0543 N   0  3  0  1  0  0  0  0  0  0  0  0
   -5.6265   -2.2424    4.8577 H   0  0  0  1  0  0  0  0  0  0  0  0
   -4.0048   -2.3263    4.3077 H   0  0  0  1  0  0  0  0  0  0  0  0
   -5.2973   -2.5735    3.2080 H   0  0  0  1  0  0  0  0  0  0  0  0
   -5.0071   -0.5785    3.7558 C   0  0  0  1  0  0  0  0  0  0  0  0
   -4.5526   -0.0382    4.5597 H   0  0  0  1  0  0  0  0  0  0  0  0
   -6.4287   -0.1531    3.6213 C   0  0  0  1  0  0  0  0  0  0  0  0
   -6.6133    1.1256    4.0458 O   0  5  0  1  0  0  0  0  0  0  0  0
   -7.3256   -0.8561    3.1855 O   0  0  0  1  0  0  0  0  0  0  0  0
   -4.2366   -0.3092    2.4775 C   0  0  0  1  0  0  0  0  0  0  0  0
   -4.3207    0.7316    2.2436 H   0  0  0  1  0  0  0  0  0  0  0  0
   -4.6721   -0.8885    1.6904 H   0  0  0  1  0  0  0  0  0  0  0  0
   -2.7809   -0.6585    2.5757 C   0  0  0  1  0  0  0  0  0  0  0  0
   -2.8586   -1.7250    2.6133 H   0  0  0  1  0  0  0  0  0  0  0  0
   -2.5755   -0.2806    3.5555 H   0  0  0  1  0  0  0  0  0  0  0  0
   -1.1492   -0.5085    1.8555 S   0  3  0  1  0  0  0  0  0  0  0  0
   -1.1783    1.1526    1.1734 C   0  0  0  1  0  0  0  0  0  0  0  0
   -1.3410    1.1022    0.1170 H   0  0  0  1  0  0  0  0  0  0  0  0
   -0.2425    1.6340    1.3673 H   0  0  0  1  0  0  0  0  0  0  0  0
   -1.9686    1.7114    1.6295 H   0  0  0  1  0  0  0  0  0  0  0  0
   -1.3595   -1.5916    0.4400 C   0  0  0  1  0  0  0  0  0  0  0  0
   -1.9584   -1.1051   -0.3014 H   0  0  0  1  0  0  0  0  0  0  0  0
   -1.8377   -2.4984    0.7467 H   0  0  0  1  0  0  0  0  0  0  0  0
    0.0105   -1.9028   -0.1314 C   0  0  0  1  0  0  0  0  0  0  0  0
   -0.0967   -2.5115   -1.0049 H   0  0  0  1  0  0  0  0  0  0  0  0
    0.6928   -0.6820   -0.4642 O   0  0  0  1  0  0  0  0  0  0  0  0
    0.8654   -2.6365    0.9201 C   0  0  0  1  0  0  0  0  0  0  0  0
    0.3317   -2.7351    1.8423 H   0  0  0  1  0  0  0  0  0  0  0  0
    1.2431   -3.9133    0.4561 O   0  0  0  1  0  0  0  0  0  0  0  0
    1.0210   -3.9949   -0.4742 H   0  0  0  1  0  0  0  0  0  0  0  0
    2.1085   -1.7245    1.0975 C   0  0  0  1  0  0  0  0  0  0  0  0
    2.0061   -1.0904    1.9532 H   0  0  0  1  0  0  0  0  0  0  0  0
    3.2952   -2.4897    1.2152 O   0  0  0  1  0  0  0  0  0  0  0  0
    3.6176   -2.7178    0.3402 H   0  0  0  1  0  0  0  0  0  0  0  0
    2.0972   -0.9024   -0.2166 C   0  0  0  1  0  0  0  0  0  0  0  0
    2.5444   -1.4544   -1.0168 H   0  0  0  1  0  0  0  0  0  0  0  0
    2.8007    0.3628   -0.0456 N   0  0  0  1  0  0  0  0  0  0  0  0
    2.1969    1.5719    0.1167 C   0  0  0  1  0  0  0  0  0  0  0  0
    1.1630    1.6823    0.1379 H   0  0  0  1  0  0  0  0  0  0  0  0
    3.0134    2.5825    0.2436 N   0  0  0  1  0  0  0  0  0  0  0  0
    4.2679    1.9977    0.1685 C   0  0  0  1  0  0  0  0  0  0  0  0
    5.5704    2.4854    0.2185 C   0  0  0  1  0  0  0  0  0  0  0  0
    5.7593    3.8326    0.3798 N   0  0  0  1  0  0  0  0  0  0  0  0
    4.9893    4.4388    0.3801 H   0  0  0  1  0  0  0  0  0  0  0  0
    6.6644    4.1902    0.4948 H   0  0  0  1  0  0  0  0  0  0  0  0
    6.6000    1.6388    0.1095 N   0  0  0  1  0  0  0  0  0  0  0  0
    6.3278    0.3353   -0.0604 C   0  0  0  1  0  0  0  0  0  0  0  0
    7.1549   -0.2896   -0.1452 H   0  0  0  1  0  0  0  0  0  0  0  0
    5.1457   -0.2638   -0.1349 N   0  0  0  1  0  0  0  0  0  0  0  0
    4.1483    0.6129   -0.0105 C   0  0  0  1  0  0  0  0  0  0  0  0
  1  2  1  0  0  0  0
  1  3  1  0  0  0  0
  1  4  1  0  0  0  0
  1  5  1  0  0  0  0
  5  6  1  0  0  0  0
  5  7  1  0  0  0  0
  5 10  1  0  0  0  0
  7  8  1  0  0  0  0
  7  9  2  0  0  0  0
 10 11  1  0  0  0  0
 10 12  1  0  0  0  0
 10 13  1  0  0  0  0
 13 14  1  0  0  0  0
 13 15  1  0  0  0  0
 13 16  1  0  0  0  0
 16 17  1  0  0  0  0
 16 21  1  0  0  0  0
 17 18  1  0  0  0  0
 17 19  1  0  0  0  0
 17 20  1  0  0  0  0
 21 22  1  0  0  0  0
 21 23  1  0  0  0  0
 21 24  1  0  0  0  0
 24 25  1  0  0  0  0
 24 26  1  0  0  0  0
 24 27  1  0  0  0  0
 26 35  1  0  0  0  0
 27 28  1  0  0  0  0
 27 29  1  0  0  0  0
 27 31  1  0  0  0  0
 29 30  1  0  0  0  0
 31 32  1  0  0  0  0
 31 33  1  0  0  0  0
 31 35  1  0  0  0  0
 33 34  1  0  0  0  0
 35 36  1  0  0  0  0
 35 37  1  0  0  0  0
 37 38  1  0  0  0  0
 37 50  1  0  0  0  0
 38 39  1  0  0  0  0
 38 40  2  0  0  0  0
 40 41  1  0  0  0  0
 41 42  1  0  0  0  0
 41 50  2  0  0  0  0
 42 43  1  0  0  0  0
 42 46  2  0  0  0  0
 43 44  1  0  0  0  0
 43 45  1  0  0  0  0
 46 47  1  0  0  0  0
 47 48  1  0  0  0  0
 47 49  2  0  0  0  0
 49 50  1  0  0  0  0
M  END
> <ConfClashScore>
0 

> <ConfOneFourInteractionScore>
-0.987977 

> <ConfScore>
-0.00977493 

> <ConfScorePBest>
0.0121115 

> <ConfTolerance>
1.02193 

$$$$
SAM.****
  PyMOL2.4          3D                             0

 50 52  0  0  0  0  0  0  0  0999 V2000
   -0.7467   -4.1334   -3.4008 N   0  3  0  1  0  0  0  0  0  0  0  0
   -0.2164   -3.2285   -3.3511 H   0  0  0  1  0  0  0  0  0  0  0  0
   -1.4330   -4.0934   -4.1945 H   0  0  0  1  0  0  0  0  0  0  0  0
   -0.0745   -4.9245   -3.5582 H   0  0  0  1  0  0  0  0  0  0  0  0
   -1.4792   -4.3514   -2.1220 C   0  0  0  1  0  0  0  0  0  0  0  0
   -0.8259   -4.0924   -1.3152 H   0  0  0  1  0  0  0  0  0  0  0  0
   -1.8639   -5.7813   -1.9563 C   0  0  0  1  0  0  0  0  0  0  0  0
   -1.9258   -6.2508   -0.6814 O   0  5  0  1  0  0  0  0  0  0  0  0
   -2.0984   -6.4423   -2.9545 O   0  0  0  1  0  0  0  0  0  0  0  0
   -2.7139   -3.4779   -2.0099 C   0  0  0  1  0  0  0  0  0  0  0  0
   -3.4405   -3.8256   -2.7142 H   0  0  0  1  0  0  0  0  0  0  0  0
   -2.4399   -2.4711   -2.2469 H   0  0  0  1  0  0  0  0  0  0  0  0
   -3.3427   -3.4938   -0.6173 C   0  0  0  1  0  0  0  0  0  0  0  0
   -3.7936   -4.4507   -0.4559 H   0  0  0  1  0  0  0  0  0  0  0  0
   -4.0937   -2.7330   -0.5718 H   0  0  0  1  0  0  0  0  0  0  0  0
   -2.2029   -3.2111    0.6212 S   0  3  0  1  0  0  0  0  0  0  0  0
   -3.2887   -2.6751    2.0507 C   0  0  0  1  0  0  0  0  0  0  0  0
   -3.2843   -3.4328    2.8062 H   0  0  0  1  0  0  0  0  0  0  0  0
   -4.2891   -2.5255    1.7018 H   0  0  0  1  0  0  0  0  0  0  0  0
   -2.9128   -1.7610    2.4605 H   0  0  0  1  0  0  0  0  0  0  0  0
   -1.3204   -1.6448    0.4939 C   0  0  0  1  0  0  0  0  0  0  0  0
   -1.1984   -1.2185    1.4677 H   0  0  0  1  0  0  0  0  0  0  0  0
   -1.8720   -0.9686   -0.1254 H   0  0  0  1  0  0  0  0  0  0  0  0
    0.0186   -1.9070   -0.1134 C   0  0  0  1  0  0  0  0  0  0  0  0
   -0.0970   -2.5225   -0.9809 H   0  0  0  1  0  0  0  0  0  0  0  0
    0.6467   -0.6648   -0.4727 O   0  0  0  1  0  0  0  0  0  0  0  0
    0.9333   -2.6067    0.9107 C   0  0  0  1  0  0  0  0  0  0  0  0
    0.4348   -2.7198    1.8506 H   0  0  0  1  0  0  0  0  0  0  0  0
    1.3441   -3.8880    0.4316 O   0  0  0  1  0  0  0  0  0  0  0  0
    1.0671   -3.9927   -0.4816 H   0  0  0  1  0  0  0  0  0  0  0  0
    2.1496   -1.6518    1.0431 C   0  0  0  1  0  0  0  0  0  0  0  0
    2.0543   -1.0181    1.9000 H   0  0  0  1  0  0  0  0  0  0  0  0
    3.3750   -2.3812    1.1234 O   0  0  0  1  0  0  0  0  0  0  0  0
    3.2700   -3.2325    0.6922 H   0  0  0  1  0  0  0  0  0  0  0  0
    2.0655   -0.8359   -0.2722 C   0  0  0  1  0  0  0  0  0  0  0  0
    2.5041   -1.3754   -1.0855 H   0  0  0  1  0  0  0  0  0  0  0  0
    2.7323    0.4572   -0.1283 N   0  0  0  1  0  0  0  0  0  0  0  0
    2.4272    1.4483    0.7534 C   0  0  0  1  0  0  0  0  0  0  0  0
    1.6085    1.3956    1.3925 H   0  0  0  1  0  0  0  0  0  0  0  0
    3.2396    2.4699    0.7363 N   0  0  0  1  0  0  0  0  0  0  0  0
    4.1706    2.1281   -0.2323 C   0  0  0  1  0  0  0  0  0  0  0  0
    5.2937    2.7557   -0.7629 C   0  0  0  1  0  0  0  0  0  0  0  0
    5.7787    4.0035   -0.3866 N   0  0  0  1  0  0  0  0  0  0  0  0
    5.3084    4.5266    0.2957 H   0  0  0  1  0  0  0  0  0  0  0  0
    6.5908    4.3598   -0.8037 H   0  0  0  1  0  0  0  0  0  0  0  0
    6.0027    2.1478   -1.7203 N   0  0  0  1  0  0  0  0  0  0  0  0
    5.5851    0.9447   -2.1447 C   0  0  0  1  0  0  0  0  0  0  0  0
    6.1604    0.5070   -2.8925 H   0  0  0  1  0  0  0  0  0  0  0  0
    4.5372    0.2382   -1.7390 N   0  0  0  1  0  0  0  0  0  0  0  0
    3.8655    0.8740   -0.7780 C   0  0  0  1  0  0  0  0  0  0  0  0
  1  2  1  0  0  0  0
  1  3  1  0  0  0  0
  1  4  1  0  0  0  0
  1  5  1  0  0  0  0
  5  6  1  0  0  0  0
  5  7  1  0  0  0  0
  5 10  1  0  0  0  0
  7  8  1  0  0  0  0
  7  9  2  0  0  0  0
 10 11  1  0  0  0  0
 10 12  1  0  0  0  0
 10 13  1  0  0  0  0
 13 14  1  0  0  0  0
 13 15  1  0  0  0  0
 13 16  1  0  0  0  0
 16 17  1  0  0  0  0
 16 21  1  0  0  0  0
 17 18  1  0  0  0  0
 17 19  1  0  0  0  0
 17 20  1  0  0  0  0
 21 22  1  0  0  0  0
 21 23  1  0  0  0  0
 21 24  1  0  0  0  0
 24 25  1  0  0  0  0
 24 26  1  0  0  0  0
 24 27  1  0  0  0  0
 26 35  1  0  0  0  0
 27 28  1  0  0  0  0
 27 29  1  0  0  0  0
 27 31  1  0  0  0  0
 29 30  1  0  0  0  0
 31 32  1  0  0  0  0
 31 33  1  0  0  0  0
 31 35  1  0  0  0  0
 33 34  1  0  0  0  0
 35 36  1  0  0  0  0
 35 37  1  0  0  0  0
 37 38  1  0  0  0  0
 37 50  1  0  0  0  0
 38 39  1  0  0  0  0
 38 40  2  0  0  0  0
 40 41  1  0  0  0  0
 41 42  1  0  0  0  0
 41 50  2  0  0  0  0
 42 43  1  0  0  0  0
 42 46  2  0  0  0  0
 43 44  1  0  0  0  0
 43 45  1  0  0  0  0
 46 47  1  0  0  0  0
 47 48  1  0  0  0  0
 47 49  2  0  0  0  0
 49 50  1  0  0  0  0
M  END
> <ConfClashScore>
0 

> <ConfOneFourInteractionScore>
-0.988075 

> <ConfScore>
-0.00890563 

> <ConfScorePBest>
0.0120085 

> <ConfTolerance>
1.18848 

$$$$
SAM.****
  PyMOL2.4          3D                             0

 50 52  0  0  0  0  0  0  0  0999 V2000
   -2.0527   -6.4253    0.4912 N   0  3  0  1  0  0  0  0  0  0  0  0
   -3.0221   -6.5999    0.1277 H   0  0  0  1  0  0  0  0  0  0  0  0
   -1.6188   -7.3363    0.7817 H   0  0  0  1  0  0  0  0  0  0  0  0
   -1.4704   -5.9846   -0.2632 H   0  0  0  1  0  0  0  0  0  0  0  0
   -2.1189   -5.5105    1.6652 C   0  0  0  1  0  0  0  0  0  0  0  0
   -1.2476   -5.6398    2.2726 H   0  0  0  1  0  0  0  0  0  0  0  0
   -3.3283   -5.8598    2.4624 C   0  0  0  1  0  0  0  0  0  0  0  0
   -3.1481   -5.6690    3.7969 O   0  5  0  1  0  0  0  0  0  0  0  0
   -4.3546   -6.2702    1.9460 O   0  0  0  1  0  0  0  0  0  0  0  0
   -2.1813   -4.0808    1.1878 C   0  0  0  1  0  0  0  0  0  0  0  0
   -3.0177   -3.9904    0.5265 H   0  0  0  1  0  0  0  0  0  0  0  0
   -1.2786   -3.8724    0.6524 H   0  0  0  1  0  0  0  0  0  0  0  0
   -2.3275   -3.0600    2.2500 C   0  0  0  1  0  0  0  0  0  0  0  0
   -1.4380   -3.0700    2.8447 H   0  0  0  1  0  0  0  0  0  0  0  0
   -3.1661   -3.3303    2.8571 H   0  0  0  1  0  0  0  0  0  0  0  0
   -2.5835   -1.3886    1.6614 S   0  3  0  1  0  0  0  0  0  0  0  0
   -3.8242   -1.5459    0.3783 C   0  0  0  1  0  0  0  0  0  0  0  0
   -3.6161   -2.4113   -0.2156 H   0  0  0  1  0  0  0  0  0  0  0  0
   -3.8071   -0.6748   -0.2427 H   0  0  0  1  0  0  0  0  0  0  0  0
   -4.7904   -1.6456    0.8272 H   0  0  0  1  0  0  0  0  0  0  0  0
   -1.1912   -1.1323    0.6748 C   0  0  0  1  0  0  0  0  0  0  0  0
   -0.5883   -0.5774    1.3629 H   0  0  0  1  0  0  0  0  0  0  0  0
   -1.6103   -0.4665   -0.0504 H   0  0  0  1  0  0  0  0  0  0  0  0
   -0.0990   -1.7565   -0.1639 C   0  0  0  1  0  0  0  0  0  0  0  0
   -0.5380   -2.3090   -0.9682 H   0  0  0  1  0  0  0  0  0  0  0  0
    0.7765   -0.7378   -0.6793 O   0  0  0  1  0  0  0  0  0  0  0  0
    0.7807   -2.6865    0.7078 C   0  0  0  1  0  0  0  0  0  0  0  0
    0.2725   -2.9661    1.6069 H   0  0  0  1  0  0  0  0  0  0  0  0
    1.1537   -3.8495   -0.0048 O   0  0  0  1  0  0  0  0  0  0  0  0
    1.8801   -4.2838    0.4483 H   0  0  0  1  0  0  0  0  0  0  0  0
    1.9899   -1.8191    1.0103 C   0  0  0  1  0  0  0  0  0  0  0  0
    1.8313   -1.2281    1.8880 H   0  0  0  1  0  0  0  0  0  0  0  0
    3.1653   -2.6135    1.1763 O   0  0  0  1  0  0  0  0  0  0  0  0
    3.6855   -2.5885    0.3699 H   0  0  0  1  0  0  0  0  0  0  0  0
    2.0905   -0.9350   -0.2428 C   0  0  0  1  0  0  0  0  0  0  0  0
    2.6643   -1.4270   -1.0002 H   0  0  0  1  0  0  0  0  0  0  0  0
    2.7158    0.3488    0.0880 N   0  0  0  1  0  0  0  0  0  0  0  0
    2.2538    1.2866    0.9598 C   0  0  0  1  0  0  0  0  0  0  0  0
    1.3738    1.1627    1.4999 H   0  0  0  1  0  0  0  0  0  0  0  0
    2.9986    2.3533    1.0668 N   0  0  0  1  0  0  0  0  0  0  0  0
    4.0510    2.1027    0.2000 C   0  0  0  1  0  0  0  0  0  0  0  0
    5.1855    2.8136   -0.1800 C   0  0  0  1  0  0  0  0  0  0  0  0
    5.5496    4.0788    0.2900 N   0  0  0  1  0  0  0  0  0  0  0  0
    6.3667    4.5076   -0.0401 H   0  0  0  1  0  0  0  0  0  0  0  0
    4.9878    4.5369    0.9495 H   0  0  0  1  0  0  0  0  0  0  0  0
    6.0328    2.2842   -1.0691 N   0  0  0  1  0  0  0  0  0  0  0  0
    5.7400    1.0759   -1.5754 C   0  0  0  1  0  0  0  0  0  0  0  0
    6.4209    0.7007   -2.2662 H   0  0  0  1  0  0  0  0  0  0  0  0
    4.6989    0.2953   -1.3134 N   0  0  0  1  0  0  0  0  0  0  0  0
    3.8864    0.8545   -0.4156 C   0  0  0  1  0  0  0  0  0  0  0  0
  1  2  1  0  0  0  0
  1  3  1  0  0  0  0
  1  4  1  0  0  0  0
  1  5  1  0  0  0  0
  5  6  1  0  0  0  0
  5  7  1  0  0  0  0
  5 10  1  0  0  0  0
  7  8  1  0  0  0  0
  7  9  2  0  0  0  0
 10 11  1  0  0  0  0
 10 12  1  0  0  0  0
 10 13  1  0  0  0  0
 13 14  1  0  0  0  0
 13 15  1  0  0  0  0
 13 16  1  0  0  0  0
 16 17  1  0  0  0  0
 16 21  1  0  0  0  0
 17 18  1  0  0  0  0
 17 19  1  0  0  0  0
 17 20  1  0  0  0  0
 21 22  1  0  0  0  0
 21 23  1  0  0  0  0
 21 24  1  0  0  0  0
 24 25  1  0  0  0  0
 24 26  1  0  0  0  0
 24 27  1  0  0  0  0
 26 35  1  0  0  0  0
 27 28  1  0  0  0  0
 27 29  1  0  0  0  0
 27 31  1  0  0  0  0
 29 30  1  0  0  0  0
 31 32  1  0  0  0  0
 31 33  1  0  0  0  0
 31 35  1  0  0  0  0
 33 34  1  0  0  0  0
 35 36  1  0  0  0  0
 35 37  1  0  0  0  0
 37 38  1  0  0  0  0
 37 50  1  0  0  0  0
 38 39  1  0  0  0  0
 38 40  2  0  0  0  0
 40 41  1  0  0  0  0
 41 42  1  0  0  0  0
 41 50  2  0  0  0  0
 42 43  1  0  0  0  0
 42 46  2  0  0  0  0
 43 44  1  0  0  0  0
 43 45  1  0  0  0  0
 46 47  1  0  0  0  0
 47 48  1  0  0  0  0
 47 49  2  0  0  0  0
 49 50  1  0  0  0  0
M  END
> <ConfClashScore>
0 

> <ConfOneFourInteractionScore>
-0.986105 

> <ConfScore>
-0.00857106 

> <ConfScorePBest>
0.0119055 

> <ConfTolerance>
1.06847 

$$$$
SAM.****
  PyMOL2.4          3D                             0

 50 52  0  0  0  0  0  0  0  0999 V2000
   -4.5784   -0.3450   -1.0630 N   0  3  0  1  0  0  0  0  0  0  0  0
   -3.6977    0.1755   -1.2994 H   0  0  0  1  0  0  0  0  0  0  0  0
   -5.3327   -0.0841   -1.7452 H   0  0  0  1  0  0  0  0  0  0  0  0
   -4.3993   -1.3782   -1.1167 H   0  0  0  1  0  0  0  0  0  0  0  0
   -5.0120    0.0123    0.3168 C   0  0  0  1  0  0  0  0  0  0  0  0
   -5.8807   -0.5630    0.5604 H   0  0  0  1  0  0  0  0  0  0  0  0
   -5.3835    1.4544    0.3673 C   0  0  0  1  0  0  0  0  0  0  0  0
   -5.7392    1.9213    1.5942 O   0  5  0  1  0  0  0  0  0  0  0  0
   -5.3782    2.1886   -0.6070 O   0  0  0  1  0  0  0  0  0  0  0  0
   -3.9618   -0.3127    1.2912 C   0  0  0  1  0  0  0  0  0  0  0  0
   -4.2668    0.1075    2.2267 H   0  0  0  1  0  0  0  0  0  0  0  0
   -3.0684    0.1717    0.9564 H   0  0  0  1  0  0  0  0  0  0  0  0
   -3.6051   -1.7471    1.5553 C   0  0  0  1  0  0  0  0  0  0  0  0
   -4.5026   -2.2514    1.8468 H   0  0  0  1  0  0  0  0  0  0  0  0
   -2.9087   -1.7591    2.3676 H   0  0  0  1  0  0  0  0  0  0  0  0
   -2.8438   -2.7257    0.1508 S   0  3  0  1  0  0  0  0  0  0  0  0
   -2.7469   -4.2921    1.0784 C   0  0  0  1  0  0  0  0  0  0  0  0
   -1.7726   -4.7181    0.9591 H   0  0  0  1  0  0  0  0  0  0  0  0
   -3.4821   -4.9738    0.7046 H   0  0  0  1  0  0  0  0  0  0  0  0
   -2.9290   -4.1039    2.1158 H   0  0  0  1  0  0  0  0  0  0  0  0
   -1.3323   -1.9259   -0.0798 C   0  0  0  1  0  0  0  0  0  0  0  0
   -1.3067   -1.3383    0.8140 H   0  0  0  1  0  0  0  0  0  0  0  0
   -1.5890   -1.3018   -0.9102 H   0  0  0  1  0  0  0  0  0  0  0  0
    0.1555   -2.0677   -0.3265 C   0  0  0  1  0  0  0  0  0  0  0  0
    0.3225   -2.7927   -1.0955 H   0  0  0  1  0  0  0  0  0  0  0  0
    0.7207   -0.8335   -0.6762 O   0  0  0  1  0  0  0  0  0  0  0  0
    0.8853   -2.4662    0.9645 C   0  0  0  1  0  0  0  0  0  0  0  0
    0.4233   -2.0224    1.8215 H   0  0  0  1  0  0  0  0  0  0  0  0
    0.9167   -3.8863    1.1212 O   0  0  0  1  0  0  0  0  0  0  0  0
    0.2362   -4.2842    0.5733 H   0  0  0  1  0  0  0  0  0  0  0  0
    2.2692   -1.9133    0.7462 C   0  0  0  1  0  0  0  0  0  0  0  0
    2.7454   -1.6918    1.6785 H   0  0  0  1  0  0  0  0  0  0  0  0
    3.0742   -2.8276    0.0060 O   0  0  0  1  0  0  0  0  0  0  0  0
    4.0006   -2.6714    0.2035 H   0  0  0  1  0  0  0  0  0  0  0  0
    2.0111   -0.6345   -0.0562 C   0  0  0  1  0  0  0  0  0  0  0  0
    2.7682   -0.4986   -0.8000 H   0  0  0  1  0  0  0  0  0  0  0  0
    1.9814    0.5321    0.8306 N   0  0  0  1  0  0  0  0  0  0  0  0
    0.8744    1.2071    1.2451 C   0  0  0  1  0  0  0  0  0  0  0  0
   -0.0903    0.8620    1.0667 H   0  0  0  1  0  0  0  0  0  0  0  0
    1.1149    2.3200    1.8833 N   0  0  0  1  0  0  0  0  0  0  0  0
    2.4992    2.3896    1.9043 C   0  0  0  1  0  0  0  0  0  0  0  0
    3.4172    3.3063    2.4082 C   0  0  0  1  0  0  0  0  0  0  0  0
    3.0474    4.4515    3.0628 N   0  0  0  1  0  0  0  0  0  0  0  0
    3.7322    5.0663    3.3997 H   0  0  0  1  0  0  0  0  0  0  0  0
    2.0980    4.6560    3.1943 H   0  0  0  1  0  0  0  0  0  0  0  0
    4.7274    3.0824    2.2598 N   0  0  0  1  0  0  0  0  0  0  0  0
    5.1063    1.9717    1.6081 C   0  0  0  1  0  0  0  0  0  0  0  0
    6.1327    1.8359    1.5099 H   0  0  0  1  0  0  0  0  0  0  0  0
    4.3478    1.0234    1.0720 N   0  0  0  1  0  0  0  0  0  0  0  0
    3.0512    1.2791    1.2518 C   0  0  0  1  0  0  0  0  0  0  0  0
  1  2  1  0  0  0  0
  1  3  1  0  0  0  0
  1  4  1  0  0  0  0
  1  5  1  0  0  0  0
  5  6  1  0  0  0  0
  5  7  1  0  0  0  0
  5 10  1  0  0  0  0
  7  8  1  0  0  0  0
  7  9  2  0  0  0  0
 10 11  1  0  0  0  0
 10 12  1  0  0  0  0
 10 13  1  0  0  0  0
 13 14  1  0  0  0  0
 13 15  1  0  0  0  0
 13 16  1  0  0  0  0
 16 17  1  0  0  0  0
 16 21  1  0  0  0  0
 17 18  1  0  0  0  0
 17 19  1  0  0  0  0
 17 20  1  0  0  0  0
 21 22  1  0  0  0  0
 21 23  1  0  0  0  0
 21 24  1  0  0  0  0
 24 25  1  0  0  0  0
 24 26  1  0  0  0  0
 24 27  1  0  0  0  0
 26 35  1  0  0  0  0
 27 28  1  0  0  0  0
 27 29  1  0  0  0  0
 27 31  1  0  0  0  0
 29 30  1  0  0  0  0
 31 32  1  0  0  0  0
 31 33  1  0  0  0  0
 31 35  1  0  0  0  0
 33 34  1  0  0  0  0
 35 36  1  0  0  0  0
 35 37  1  0  0  0  0
 37 38  1  0  0  0  0
 37 50  1  0  0  0  0
 38 39  1  0  0  0  0
 38 40  2  0  0  0  0
 40 41  1  0  0  0  0
 41 42  1  0  0  0  0
 41 50  2  0  0  0  0
 42 43  1  0  0  0  0
 42 46  2  0  0  0  0
 43 44  1  0  0  0  0
 43 45  1  0  0  0  0
 46 47  1  0  0  0  0
 47 48  1  0  0  0  0
 47 49  2  0  0  0  0
 49 50  1  0  0  0  0
M  END
> <ConfClashScore>
0 

> <ConfOneFourInteractionScore>
-0.98093 

> <ConfScore>
-0.00554138 

> <ConfScorePBest>
0.0118025 

> <ConfTolerance>
1.11748 

$$$$
SAM.****
  PyMOL2.4          3D                             0

 50 52  0  0  0  0  0  0  0  0999 V2000
   -4.8409    2.5915    1.9117 N   0  3  0  1  0  0  0  0  0  0  0  0
   -4.4079    2.9654    2.7921 H   0  0  0  1  0  0  0  0  0  0  0  0
   -5.5497    3.2776    1.5518 H   0  0  0  1  0  0  0  0  0  0  0  0
   -4.0937    2.4475    1.1882 H   0  0  0  1  0  0  0  0  0  0  0  0
   -5.5099    1.2919    2.1997 C   0  0  0  1  0  0  0  0  0  0  0  0
   -6.0639    0.9718    1.3420 H   0  0  0  1  0  0  0  0  0  0  0  0
   -6.4418    1.4681    3.3488 C   0  0  0  1  0  0  0  0  0  0  0  0
   -7.2687    0.3982    3.4945 O   0  5  0  1  0  0  0  0  0  0  0  0
   -6.4694    2.4469    4.0767 O   0  0  0  1  0  0  0  0  0  0  0  0
   -4.4908    0.2285    2.5610 C   0  0  0  1  0  0  0  0  0  0  0  0
   -5.0086   -0.6905    2.7405 H   0  0  0  1  0  0  0  0  0  0  0  0
   -3.9844    0.5331    3.4530 H   0  0  0  1  0  0  0  0  0  0  0  0
   -3.4811   -0.0005    1.5028 C   0  0  0  1  0  0  0  0  0  0  0  0
   -2.9870    0.9285    1.3088 H   0  0  0  1  0  0  0  0  0  0  0  0
   -3.9925   -0.3242    0.6204 H   0  0  0  1  0  0  0  0  0  0  0  0
   -2.2219   -1.2320    1.9045 S   0  3  0  1  0  0  0  0  0  0  0  0
   -1.6485   -0.5548    3.4540 C   0  0  0  1  0  0  0  0  0  0  0  0
   -1.9321    0.4748    3.5206 H   0  0  0  1  0  0  0  0  0  0  0  0
   -0.5827   -0.6350    3.5054 H   0  0  0  1  0  0  0  0  0  0  0  0
   -2.0871   -1.0984    4.2646 H   0  0  0  1  0  0  0  0  0  0  0  0
   -0.7495   -0.7146    0.6466 C   0  0  0  1  0  0  0  0  0  0  0  0
    0.0122   -0.2278    1.2191 H   0  0  0  1  0  0  0  0  0  0  0  0
   -1.1556   -0.0269   -0.0654 H   0  0  0  1  0  0  0  0  0  0  0  0
   -0.0991   -1.8406   -0.1208 C   0  0  0  1  0  0  0  0  0  0  0  0
   -0.8533   -2.4260   -0.6039 H   0  0  0  1  0  0  0  0  0  0  0  0
    0.8502   -1.3298   -1.0800 O   0  0  0  1  0  0  0  0  0  0  0  0
    0.7693   -2.7196    0.8152 C   0  0  0  1  0  0  0  0  0  0  0  0
    0.3169   -2.8251    1.7792 H   0  0  0  1  0  0  0  0  0  0  0  0
    0.9951   -4.0120    0.2506 O   0  0  0  1  0  0  0  0  0  0  0  0
    1.6287   -3.9419   -0.4672 H   0  0  0  1  0  0  0  0  0  0  0  0
    2.0863   -1.9028    0.8974 C   0  0  0  1  0  0  0  0  0  0  0  0
    2.1119   -1.3117    1.7889 H   0  0  0  1  0  0  0  0  0  0  0  0
    3.2225   -2.7678    0.8660 O   0  0  0  1  0  0  0  0  0  0  0  0
    3.9193   -2.4016    1.4157 H   0  0  0  1  0  0  0  0  0  0  0  0
    2.0476   -1.0044   -0.3542 C   0  0  0  1  0  0  0  0  0  0  0  0
    2.9068   -1.1901   -0.9643 H   0  0  0  1  0  0  0  0  0  0  0  0
    2.0251    0.4040    0.0419 N   0  0  0  1  0  0  0  0  0  0  0  0
    1.0424    1.2952   -0.2631 C   0  0  0  1  0  0  0  0  0  0  0  0
    0.2552    1.0626   -0.9017 H   0  0  0  1  0  0  0  0  0  0  0  0
    1.1625    2.4636    0.3062 N   0  0  0  1  0  0  0  0  0  0  0  0
    2.3180    2.3392    1.0619 C   0  0  0  1  0  0  0  0  0  0  0  0
    3.0265    3.1956    1.8995 C   0  0  0  1  0  0  0  0  0  0  0  0
    2.6381    4.4849    2.1518 N   0  0  0  1  0  0  0  0  0  0  0  0
    3.1953    5.0636    2.7130 H   0  0  0  1  0  0  0  0  0  0  0  0
    1.8030    4.8284    1.7711 H   0  0  0  1  0  0  0  0  0  0  0  0
    4.1420    2.7645    2.4983 N   0  0  0  1  0  0  0  0  0  0  0  0
    4.5442    1.5080    2.2503 C   0  0  0  1  0  0  0  0  0  0  0  0
    5.4175    1.2121    2.7312 H   0  0  0  1  0  0  0  0  0  0  0  0
    3.9777    0.5922    1.4742 N   0  0  0  1  0  0  0  0  0  0  0  0
    2.8645    1.0583    0.9062 C   0  0  0  1  0  0  0  0  0  0  0  0
  1  2  1  0  0  0  0
  1  3  1  0  0  0  0
  1  4  1  0  0  0  0
  1  5  1  0  0  0  0
  5  6  1  0  0  0  0
  5  7  1  0  0  0  0
  5 10  1  0  0  0  0
  7  8  1  0  0  0  0
  7  9  2  0  0  0  0
 10 11  1  0  0  0  0
 10 12  1  0  0  0  0
 10 13  1  0  0  0  0
 13 14  1  0  0  0  0
 13 15  1  0  0  0  0
 13 16  1  0  0  0  0
 16 17  1  0  0  0  0
 16 21  1  0  0  0  0
 17 18  1  0  0  0  0
 17 19  1  0  0  0  0
 17 20  1  0  0  0  0
 21 22  1  0  0  0  0
 21 23  1  0  0  0  0
 21 24  1  0  0  0  0
 24 25  1  0  0  0  0
 24 26  1  0  0  0  0
 24 27  1  0  0  0  0
 26 35  1  0  0  0  0
 27 28  1  0  0  0  0
 27 29  1  0  0  0  0
 27 31  1  0  0  0  0
 29 30  1  0  0  0  0
 31 32  1  0  0  0  0
 31 33  1  0  0  0  0
 31 35  1  0  0  0  0
 33 34  1  0  0  0  0
 35 36  1  0  0  0  0
 35 37  1  0  0  0  0
 37 38  1  0  0  0  0
 37 50  1  0  0  0  0
 38 39  1  0  0  0  0
 38 40  2  0  0  0  0
 40 41  1  0  0  0  0
 41 42  1  0  0  0  0
 41 50  2  0  0  0  0
 42 43  1  0  0  0  0
 42 46  2  0  0  0  0
 43 44  1  0  0  0  0
 43 45  1  0  0  0  0
 46 47  1  0  0  0  0
 47 48  1  0  0  0  0
 47 49  2  0  0  0  0
 49 50  1  0  0  0  0
M  END
> <ConfClashScore>
0 

> <ConfOneFourInteractionScore>
-0.988075 

> <ConfScore>
-0.00230437 

> <ConfScorePBest>
0.0116995 

> <ConfTolerance>
1.25469 

$$$$
SAM.****
  PyMOL2.4          3D                             0

 50 52  0  0  0  0  0  0  0  0999 V2000
   -1.9327    3.0079   -4.3047 N   0  3  0  1  0  0  0  0  0  0  0  0
   -2.0378    3.8975   -3.7570 H   0  0  0  1  0  0  0  0  0  0  0  0
   -2.8578    2.7454   -4.7264 H   0  0  0  1  0  0  0  0  0  0  0  0
   -1.2266    3.1490   -5.0690 H   0  0  0  1  0  0  0  0  0  0  0  0
   -1.4729    1.9178   -3.3994 C   0  0  0  1  0  0  0  0  0  0  0  0
   -0.5629    2.2271   -2.9290 H   0  0  0  1  0  0  0  0  0  0  0  0
   -1.1877    0.6917   -4.1965 C   0  0  0  1  0  0  0  0  0  0  0  0
   -0.5592   -0.2470   -3.4391 O   0  5  0  1  0  0  0  0  0  0  0  0
   -1.4588    0.5020   -5.3707 O   0  0  0  1  0  0  0  0  0  0  0  0
   -2.4985    1.6551   -2.3135 C   0  0  0  1  0  0  0  0  0  0  0  0
   -3.4601    1.5556   -2.7720 H   0  0  0  1  0  0  0  0  0  0  0  0
   -2.5062    2.4905   -1.6449 H   0  0  0  1  0  0  0  0  0  0  0  0
   -2.2192    0.4131   -1.5196 C   0  0  0  1  0  0  0  0  0  0  0  0
   -1.2139    0.6204   -1.2175 H   0  0  0  1  0  0  0  0  0  0  0  0
   -2.2130   -0.3046   -2.3132 H   0  0  0  1  0  0  0  0  0  0  0  0
   -2.7145   -0.6395   -0.1794 S   0  3  0  1  0  0  0  0  0  0  0  0
   -3.4196    0.5284    0.9564 C   0  0  0  1  0  0  0  0  0  0  0  0
   -4.2073    1.0668    0.4721 H   0  0  0  1  0  0  0  0  0  0  0  0
   -2.6638    1.2146    1.2772 H   0  0  0  1  0  0  0  0  0  0  0  0
   -3.8127    0.0080    1.8046 H   0  0  0  1  0  0  0  0  0  0  0  0
   -1.1923   -1.0974    0.6702 C   0  0  0  1  0  0  0  0  0  0  0  0
   -1.4576   -1.7616    1.4661 H   0  0  0  1  0  0  0  0  0  0  0  0
   -0.7716   -0.2019    1.0776 H   0  0  0  1  0  0  0  0  0  0  0  0
   -0.1137   -1.7739   -0.1414 C   0  0  0  1  0  0  0  0  0  0  0  0
   -0.5631   -2.3476   -0.9249 H   0  0  0  1  0  0  0  0  0  0  0  0
    0.7826   -0.7933   -0.6937 O   0  0  0  1  0  0  0  0  0  0  0  0
    0.7464   -2.6876    0.7662 C   0  0  0  1  0  0  0  0  0  0  0  0
    0.2319   -2.9227    1.6745 H   0  0  0  1  0  0  0  0  0  0  0  0
    1.0999   -3.8962    0.0920 O   0  0  0  1  0  0  0  0  0  0  0  0
    2.0557   -3.9601    0.0288 H   0  0  0  1  0  0  0  0  0  0  0  0
    1.9726   -1.8340    1.0374 C   0  0  0  1  0  0  0  0  0  0  0  0
    1.8253   -1.2071    1.8919 H   0  0  0  1  0  0  0  0  0  0  0  0
    3.1316   -2.6449    1.2352 O   0  0  0  1  0  0  0  0  0  0  0  0
    3.7117   -2.5659    0.4744 H   0  0  0  1  0  0  0  0  0  0  0  0
    2.0920   -1.0002   -0.2481 C   0  0  0  1  0  0  0  0  0  0  0  0
    2.6562   -1.5320   -0.9855 H   0  0  0  1  0  0  0  0  0  0  0  0
    2.7411    0.2791    0.0341 N   0  0  0  1  0  0  0  0  0  0  0  0
    2.1851    1.3475    0.6682 C   0  0  0  1  0  0  0  0  0  0  0  0
    1.2593    1.2984    1.1395 H   0  0  0  1  0  0  0  0  0  0  0  0
    2.9014    2.4384    0.6403 N   0  0  0  1  0  0  0  0  0  0  0  0
    4.0350    2.0644   -0.0644 C   0  0  0  1  0  0  0  0  0  0  0  0
    5.1907    2.7277   -0.4663 C   0  0  0  1  0  0  0  0  0  0  0  0
    5.4892    4.0620   -0.2126 N   0  0  0  1  0  0  0  0  0  0  0  0
    6.2638    4.4811   -0.6423 H   0  0  0  1  0  0  0  0  0  0  0  0
    4.9248    4.5832    0.3959 H   0  0  0  1  0  0  0  0  0  0  0  0
    6.1262    2.0693   -1.1591 N   0  0  0  1  0  0  0  0  0  0  0  0
    5.8998    0.7793   -1.4538 C   0  0  0  1  0  0  0  0  0  0  0  0
    6.6486    0.3040   -1.9968 H   0  0  0  1  0  0  0  0  0  0  0  0
    4.8494    0.0286   -1.1457 N   0  0  0  1  0  0  0  0  0  0  0  0
    3.9473    0.7190   -0.4468 C   0  0  0  1  0  0  0  0  0  0  0  0
  1  2  1  0  0  0  0
  1  3  1  0  0  0  0
  1  4  1  0  0  0  0
  1  5  1  0  0  0  0
  5  6  1  0  0  0  0
  5  7  1  0  0  0  0
  5 10  1  0  0  0  0
  7  8  1  0  0  0  0
  7  9  2  0  0  0  0
 10 11  1  0  0  0  0
 10 12  1  0  0  0  0
 10 13  1  0  0  0  0
 13 14  1  0  0  0  0
 13 15  1  0  0  0  0
 13 16  1  0  0  0  0
 16 17  1  0  0  0  0
 16 21  1  0  0  0  0
 17 18  1  0  0  0  0
 17 19  1  0  0  0  0
 17 20  1  0  0  0  0
 21 22  1  0  0  0  0
 21 23  1  0  0  0  0
 21 24  1  0  0  0  0
 24 25  1  0  0  0  0
 24 26  1  0  0  0  0
 24 27  1  0  0  0  0
 26 35  1  0  0  0  0
 27 28  1  0  0  0  0
 27 29  1  0  0  0  0
 27 31  1  0  0  0  0
 29 30  1  0  0  0  0
 31 32  1  0  0  0  0
 31 33  1  0  0  0  0
 31 35  1  0  0  0  0
 33 34  1  0  0  0  0
 35 36  1  0  0  0  0
 35 37  1  0  0  0  0
 37 38  1  0  0  0  0
 37 50  1  0  0  0  0
 38 39  1  0  0  0  0
 38 40  2  0  0  0  0
 40 41  1  0  0  0  0
 41 42  1  0  0  0  0
 41 50  2  0  0  0  0
 42 43  1  0  0  0  0
 42 46  2  0  0  0  0
 43 44  1  0  0  0  0
 43 45  1  0  0  0  0
 46 47  1  0  0  0  0
 47 48  1  0  0  0  0
 47 49  2  0  0  0  0
 49 50  1  0  0  0  0
M  END
> <ConfClashScore>
0 

> <ConfOneFourInteractionScore>
-0.98093 

> <ConfScore>
-0.00167709 

> <ConfScorePBest>
0.0115965 

> <ConfTolerance>
1.05999 

$$$$
SAM.****
  PyMOL2.4          3D                             0

 50 52  0  0  0  0  0  0  0  0999 V2000
   -0.1542    2.8148    0.7229 N   0  3  0  1  0  0  0  0  0  0  0  0
   -0.4353    3.3740    1.5660 H   0  0  0  1  0  0  0  0  0  0  0  0
    0.2765    3.4520    0.0082 H   0  0  0  1  0  0  0  0  0  0  0  0
    0.5435    2.0828    1.0056 H   0  0  0  1  0  0  0  0  0  0  0  0
   -1.3563    2.1556    0.1399 C   0  0  0  1  0  0  0  0  0  0  0  0
   -1.0507    1.4930   -0.6427 H   0  0  0  1  0  0  0  0  0  0  0  0
   -2.2118    3.2265   -0.4444 C   0  0  0  1  0  0  0  0  0  0  0  0
   -3.3317    2.7160   -1.0229 O   0  5  0  1  0  0  0  0  0  0  0  0
   -1.9506    4.4179   -0.4140 O   0  0  0  1  0  0  0  0  0  0  0  0
   -2.1228    1.3561    1.1894 C   0  0  0  1  0  0  0  0  0  0  0  0
   -2.6398    2.0327    1.8373 H   0  0  0  1  0  0  0  0  0  0  0  0
   -1.4310    0.7730    1.7606 H   0  0  0  1  0  0  0  0  0  0  0  0
   -3.1186    0.4403    0.5382 C   0  0  0  1  0  0  0  0  0  0  0  0
   -3.8012    1.0514   -0.0146 H   0  0  0  1  0  0  0  0  0  0  0  0
   -3.6453   -0.0668    1.3194 H   0  0  0  1  0  0  0  0  0  0  0  0
   -2.4928   -0.8031   -0.5771 S   0  3  0  1  0  0  0  0  0  0  0  0
   -3.8583   -1.9530   -0.6266 C   0  0  0  1  0  0  0  0  0  0  0  0
   -3.9620   -2.4256    0.3278 H   0  0  0  1  0  0  0  0  0  0  0  0
   -3.6718   -2.6958   -1.3738 H   0  0  0  1  0  0  0  0  0  0  0  0
   -4.7592   -1.4265   -0.8633 H   0  0  0  1  0  0  0  0  0  0  0  0
   -1.3192   -1.6823    0.4797 C   0  0  0  1  0  0  0  0  0  0  0  0
   -1.7389   -2.6369    0.7194 H   0  0  0  1  0  0  0  0  0  0  0  0
   -1.1896   -1.1137    1.3768 H   0  0  0  1  0  0  0  0  0  0  0  0
    0.0430   -1.9095   -0.1321 C   0  0  0  1  0  0  0  0  0  0  0  0
   -0.0568   -2.5066   -1.0144 H   0  0  0  1  0  0  0  0  0  0  0  0
    0.6514   -0.6486   -0.4585 O   0  0  0  1  0  0  0  0  0  0  0  0
    0.9640   -2.6169    0.8811 C   0  0  0  1  0  0  0  0  0  0  0  0
    0.4621   -2.7606    1.8151 H   0  0  0  1  0  0  0  0  0  0  0  0
    1.3999   -3.8794    0.3750 O   0  0  0  1  0  0  0  0  0  0  0  0
    0.7388   -4.2290   -0.2269 H   0  0  0  1  0  0  0  0  0  0  0  0
    2.1625   -1.6444    1.0432 C   0  0  0  1  0  0  0  0  0  0  0  0
    2.0512   -1.0326    1.9140 H   0  0  0  1  0  0  0  0  0  0  0  0
    3.4000   -2.3540    1.1141 O   0  0  0  1  0  0  0  0  0  0  0  0
    3.3692   -3.1116    0.5253 H   0  0  0  1  0  0  0  0  0  0  0  0
    2.0717   -0.7996   -0.2533 C   0  0  0  1  0  0  0  0  0  0  0  0
    2.5244   -1.3123   -1.0762 H   0  0  0  1  0  0  0  0  0  0  0  0
    2.7159    0.5032   -0.0750 N   0  0  0  1  0  0  0  0  0  0  0  0
    3.3917    0.9453    1.0207 C   0  0  0  1  0  0  0  0  0  0  0  0
    3.4579    0.3911    1.8982 H   0  0  0  1  0  0  0  0  0  0  0  0
    3.9505    2.1174    0.8871 N   0  0  0  1  0  0  0  0  0  0  0  0
    3.6279    2.4849   -0.4100 C   0  0  0  1  0  0  0  0  0  0  0  0
    3.8887    3.6043   -1.1948 C   0  0  0  1  0  0  0  0  0  0  0  0
    4.6171    4.7205   -0.7981 N   0  0  0  1  0  0  0  0  0  0  0  0
    4.7479    5.4666   -1.4198 H   0  0  0  1  0  0  0  0  0  0  0  0
    4.9996    4.7610    0.1033 H   0  0  0  1  0  0  0  0  0  0  0  0
    3.4203    3.6604   -2.4463 N   0  0  0  1  0  0  0  0  0  0  0  0
    2.6950    2.6233   -2.8939 C   0  0  0  1  0  0  0  0  0  0  0  0
    2.3456    2.7068   -3.8699 H   0  0  0  1  0  0  0  0  0  0  0  0
    2.3636    1.5057   -2.2591 N   0  0  0  1  0  0  0  0  0  0  0  0
    2.8589    1.4853   -1.0209 C   0  0  0  1  0  0  0  0  0  0  0  0
  1  2  1  0  0  0  0
  1  3  1  0  0  0  0
  1  4  1  0  0  0  0
  1  5  1  0  0  0  0
  5  6  1  0  0  0  0
  5  7  1  0  0  0  0
  5 10  1  0  0  0  0
  7  8  1  0  0  0  0
  7  9  2  0  0  0  0
 10 11  1  0  0  0  0
 10 12  1  0  0  0  0
 10 13  1  0  0  0  0
 13 14  1  0  0  0  0
 13 15  1  0  0  0  0
 13 16  1  0  0  0  0
 16 17  1  0  0  0  0
 16 21  1  0  0  0  0
 17 18  1  0  0  0  0
 17 19  1  0  0  0  0
 17 20  1  0  0  0  0
 21 22  1  0  0  0  0
 21 23  1  0  0  0  0
 21 24  1  0  0  0  0
 24 25  1  0  0  0  0
 24 26  1  0  0  0  0
 24 27  1  0  0  0  0
 26 35  1  0  0  0  0
 27 28  1  0  0  0  0
 27 29  1  0  0  0  0
 27 31  1  0  0  0  0
 29 30  1  0  0  0  0
 31 32  1  0  0  0  0
 31 33  1  0  0  0  0
 31 35  1  0  0  0  0
 33 34  1  0  0  0  0
 35 36  1  0  0  0  0
 35 37  1  0  0  0  0
 37 38  1  0  0  0  0
 37 50  1  0  0  0  0
 38 39  1  0  0  0  0
 38 40  2  0  0  0  0
 40 41  1  0  0  0  0
 41 42  1  0  0  0  0
 41 50  2  0  0  0  0
 42 43  1  0  0  0  0
 42 46  2  0  0  0  0
 43 44  1  0  0  0  0
 43 45  1  0  0  0  0
 46 47  1  0  0  0  0
 47 48  1  0  0  0  0
 47 49  2  0  0  0  0
 49 50  1  0  0  0  0
M  END
> <ConfClashScore>
0 

> <ConfOneFourInteractionScore>
-0.986101 

> <ConfScore>
-0.00165573 

> <ConfScorePBest>
0.0114935 

> <ConfTolerance>
1.31158 

$$$$
SAM.****
  PyMOL2.4          3D                             0

 50 52  0  0  0  0  0  0  0  0999 V2000
   -0.8988    0.6890    5.8240 N   0  3  0  1  0  0  0  0  0  0  0  0
   -0.5014   -0.2829    5.8260 H   0  0  0  1  0  0  0  0  0  0  0  0
   -1.8201    0.6911    6.3278 H   0  0  0  1  0  0  0  0  0  0  0  0
   -0.2328    1.3402    6.3086 H   0  0  0  1  0  0  0  0  0  0  0  0
   -1.1006    1.1408    4.4188 C   0  0  0  1  0  0  0  0  0  0  0  0
   -0.2002    1.0185    3.8537 H   0  0  0  1  0  0  0  0  0  0  0  0
   -1.4672    2.5837    4.4814 C   0  0  0  1  0  0  0  0  0  0  0  0
   -1.3395    3.2679    3.3130 O   0  5  0  1  0  0  0  0  0  0  0  0
   -1.8573    3.1389    5.4952 O   0  0  0  1  0  0  0  0  0  0  0  0
   -2.2315    0.3335    3.7775 C   0  0  0  1  0  0  0  0  0  0  0  0
   -3.1473    0.5453    4.2887 H   0  0  0  1  0  0  0  0  0  0  0  0
   -2.0088   -0.7097    3.8610 H   0  0  0  1  0  0  0  0  0  0  0  0
   -2.3835    0.6899    2.3269 C   0  0  0  1  0  0  0  0  0  0  0  0
   -2.6387    1.7279    2.2777 H   0  0  0  1  0  0  0  0  0  0  0  0
   -3.1900    0.1049    1.9367 H   0  0  0  1  0  0  0  0  0  0  0  0
   -0.9673    0.4344    1.2542 S   0  3  0  1  0  0  0  0  0  0  0  0
   -1.4738    1.3210   -0.2160 C   0  0  0  1  0  0  0  0  0  0  0  0
   -0.8278    1.0630   -1.0290 H   0  0  0  1  0  0  0  0  0  0  0  0
   -1.4156    2.3740   -0.0349 H   0  0  0  1  0  0  0  0  0  0  0  0
   -2.4807    1.0562   -0.4628 H   0  0  0  1  0  0  0  0  0  0  0  0
   -1.1073   -1.3094    0.8200 C   0  0  0  1  0  0  0  0  0  0  0  0
   -2.0377   -1.4376    0.3073 H   0  0  0  1  0  0  0  0  0  0  0  0
   -1.1232   -1.8661    1.7335 H   0  0  0  1  0  0  0  0  0  0  0  0
   -0.0250   -1.9036   -0.0526 C   0  0  0  1  0  0  0  0  0  0  0  0
   -0.4658   -2.5693   -0.7649 H   0  0  0  1  0  0  0  0  0  0  0  0
    0.6989   -0.8599   -0.7282 O   0  0  0  1  0  0  0  0  0  0  0  0
    1.0103   -2.6587    0.8172 C   0  0  0  1  0  0  0  0  0  0  0  0
    0.6045   -2.8987    1.7778 H   0  0  0  1  0  0  0  0  0  0  0  0
    1.4488   -3.8553    0.1723 O   0  0  0  1  0  0  0  0  0  0  0  0
    0.9527   -3.9820   -0.6397 H   0  0  0  1  0  0  0  0  0  0  0  0
    2.1439   -1.6554    0.9377 C   0  0  0  1  0  0  0  0  0  0  0  0
    1.9938   -1.0015    1.7712 H   0  0  0  1  0  0  0  0  0  0  0  0
    3.4039   -2.3150    1.0699 O   0  0  0  1  0  0  0  0  0  0  0  0
    3.2778   -3.1635    1.5008 H   0  0  0  1  0  0  0  0  0  0  0  0
    2.0560   -0.8888   -0.3915 C   0  0  0  1  0  0  0  0  0  0  0  0
    2.6168   -1.3937   -1.1500 H   0  0  0  1  0  0  0  0  0  0  0  0
    2.5686    0.4708   -0.2290 N   0  0  0  1  0  0  0  0  0  0  0  0
    3.3486    1.1207   -1.1356 C   0  0  0  1  0  0  0  0  0  0  0  0
    3.6381    0.6882   -2.0361 H   0  0  0  1  0  0  0  0  0  0  0  0
    3.7061    2.3275   -0.7897 N   0  0  0  1  0  0  0  0  0  0  0  0
    3.1069    2.5012    0.4482 C   0  0  0  1  0  0  0  0  0  0  0  0
    3.0807    3.5377    1.3767 C   0  0  0  1  0  0  0  0  0  0  0  0
    3.7259    4.7703    1.2402 N   0  0  0  1  0  0  0  0  0  0  0  0
    3.7103    5.4158    1.9775 H   0  0  0  1  0  0  0  0  0  0  0  0
    4.1937    4.9890    0.4073 H   0  0  0  1  0  0  0  0  0  0  0  0
    2.3929    3.3915    2.5143 N   0  0  0  1  0  0  0  0  0  0  0  0
    1.7586    2.2266    2.7210 C   0  0  0  1  0  0  0  0  0  0  0  0
    1.2388    2.1507    3.6186 H   0  0  0  1  0  0  0  0  0  0  0  0
    1.7052    1.1587    1.9345 N   0  0  0  1  0  0  0  0  0  0  0  0
    2.3933    1.3501    0.8082 C   0  0  0  1  0  0  0  0  0  0  0  0
  1  2  1  0  0  0  0
  1  3  1  0  0  0  0
  1  4  1  0  0  0  0
  1  5  1  0  0  0  0
  5  6  1  0  0  0  0
  5  7  1  0  0  0  0
  5 10  1  0  0  0  0
  7  8  1  0  0  0  0
  7  9  2  0  0  0  0
 10 11  1  0  0  0  0
 10 12  1  0  0  0  0
 10 13  1  0  0  0  0
 13 14  1  0  0  0  0
 13 15  1  0  0  0  0
 13 16  1  0  0  0  0
 16 17  1  0  0  0  0
 16 21  1  0  0  0  0
 17 18  1  0  0  0  0
 17 19  1  0  0  0  0
 17 20  1  0  0  0  0
 21 22  1  0  0  0  0
 21 23  1  0  0  0  0
 21 24  1  0  0  0  0
 24 25  1  0  0  0  0
 24 26  1  0  0  0  0
 24 27  1  0  0  0  0
 26 35  1  0  0  0  0
 27 28  1  0  0  0  0
 27 29  1  0  0  0  0
 27 31  1  0  0  0  0
 29 30  1  0  0  0  0
 31 32  1  0  0  0  0
 31 33  1  0  0  0  0
 31 35  1  0  0  0  0
 33 34  1  0  0  0  0
 35 36  1  0  0  0  0
 35 37  1  0  0  0  0
 37 38  1  0  0  0  0
 37 50  1  0  0  0  0
 38 39  1  0  0  0  0
 38 40  2  0  0  0  0
 40 41  1  0  0  0  0
 41 42  1  0  0  0  0
 41 50  2  0  0  0  0
 42 43  1  0  0  0  0
 42 46  2  0  0  0  0
 43 44  1  0  0  0  0
 43 45  1  0  0  0  0
 46 47  1  0  0  0  0
 47 48  1  0  0  0  0
 47 49  2  0  0  0  0
 49 50  1  0  0  0  0
M  END
> <ConfClashScore>
0 

> <ConfOneFourInteractionScore>
-0.983428 

> <ConfScore>
-0.0014118 

> <ConfScorePBest>
0.0113905 

> <ConfTolerance>
1.31616 

$$$$
SAM.****
  PyMOL2.4          3D                             0

 50 52  0  0  0  0  0  0  0  0999 V2000
   -7.6438    0.1691    0.2115 N   0  3  0  1  0  0  0  0  0  0  0  0
   -8.3925    0.4328    0.8988 H   0  0  0  1  0  0  0  0  0  0  0  0
   -8.0013   -0.5883   -0.4217 H   0  0  0  1  0  0  0  0  0  0  0  0
   -7.3823    1.0098   -0.3606 H   0  0  0  1  0  0  0  0  0  0  0  0
   -6.4359   -0.3271    0.9522 C   0  0  0  1  0  0  0  0  0  0  0  0
   -6.5908   -1.3603    1.1834 H   0  0  0  1  0  0  0  0  0  0  0  0
   -6.2131    0.4016    2.2326 C   0  0  0  1  0  0  0  0  0  0  0  0
   -5.5343   -0.3716    3.1220 O   0  5  0  1  0  0  0  0  0  0  0  0
   -6.5694    1.5373    2.5004 O   0  0  0  1  0  0  0  0  0  0  0  0
   -5.2394   -0.2382    0.0022 C   0  0  0  1  0  0  0  0  0  0  0  0
   -5.0930    0.7826   -0.2830 H   0  0  0  1  0  0  0  0  0  0  0  0
   -5.4383   -0.8274   -0.8686 H   0  0  0  1  0  0  0  0  0  0  0  0
   -3.9710   -0.7564    0.6787 C   0  0  0  1  0  0  0  0  0  0  0  0
   -4.1435   -1.7523    1.0300 H   0  0  0  1  0  0  0  0  0  0  0  0
   -3.7318   -0.1221    1.5066 H   0  0  0  1  0  0  0  0  0  0  0  0
   -2.5972   -0.7693   -0.4635 S   0  3  0  1  0  0  0  0  0  0  0  0
   -3.0855   -2.0861   -1.5893 C   0  0  0  1  0  0  0  0  0  0  0  0
   -4.1172   -2.3238   -1.4348 H   0  0  0  1  0  0  0  0  0  0  0  0
   -2.4880   -2.9540   -1.4031 H   0  0  0  1  0  0  0  0  0  0  0  0
   -2.9415   -1.7633   -2.5992 H   0  0  0  1  0  0  0  0  0  0  0  0
   -1.3327   -1.6487    0.4726 C   0  0  0  1  0  0  0  0  0  0  0  0
   -1.7174   -2.6226    0.6930 H   0  0  0  1  0  0  0  0  0  0  0  0
   -1.1781   -1.1110    1.3847 H   0  0  0  1  0  0  0  0  0  0  0  0
    0.0223   -1.8339   -0.1790 C   0  0  0  1  0  0  0  0  0  0  0  0
   -0.0948   -2.3604   -1.1031 H   0  0  0  1  0  0  0  0  0  0  0  0
    0.6320   -0.5539   -0.4168 O   0  0  0  1  0  0  0  0  0  0  0  0
    0.9555   -2.6214    0.7611 C   0  0  0  1  0  0  0  0  0  0  0  0
    0.4679   -2.8349    1.6893 H   0  0  0  1  0  0  0  0  0  0  0  0
    1.3766   -3.8426    0.1518 O   0  0  0  1  0  0  0  0  0  0  0  0
    0.9611   -4.5837    0.5986 H   0  0  0  1  0  0  0  0  0  0  0  0
    2.1616   -1.6692    0.9785 C   0  0  0  1  0  0  0  0  0  0  0  0
    2.0675   -1.1263    1.8957 H   0  0  0  1  0  0  0  0  0  0  0  0
    3.3978   -2.3880    0.9739 O   0  0  0  1  0  0  0  0  0  0  0  0
    3.3095   -3.1738    0.4296 H   0  0  0  1  0  0  0  0  0  0  0  0
    2.0546   -0.7261   -0.2472 C   0  0  0  1  0  0  0  0  0  0  0  0
    2.4914   -1.1754   -1.1145 H   0  0  0  1  0  0  0  0  0  0  0  0
    2.7076    0.5545    0.0205 N   0  0  0  1  0  0  0  0  0  0  0  0
    3.5053    0.8640    1.0792 C   0  0  0  1  0  0  0  0  0  0  0  0
    3.7365    0.1769    1.8248 H   0  0  0  1  0  0  0  0  0  0  0  0
    3.9581    2.0882    1.0880 N   0  0  0  1  0  0  0  0  0  0  0  0
    3.4250    2.6399   -0.0665 C   0  0  0  1  0  0  0  0  0  0  0  0
    3.4920    3.8959   -0.6624 C   0  0  0  1  0  0  0  0  0  0  0  0
    4.2168    4.9051   -0.0852 N   0  0  0  1  0  0  0  0  0  0  0  0
    4.1993    5.8048   -0.4734 H   0  0  0  1  0  0  0  0  0  0  0  0
    4.7527    4.7273    0.7157 H   0  0  0  1  0  0  0  0  0  0  0  0
    2.8427    4.1209   -1.8098 N   0  0  0  1  0  0  0  0  0  0  0  0
    2.1313    3.1128   -2.3385 C   0  0  0  1  0  0  0  0  0  0  0  0
    1.6379    3.3287   -3.2282 H   0  0  0  1  0  0  0  0  0  0  0  0
    1.9725    1.8776   -1.8791 N   0  0  0  1  0  0  0  0  0  0  0  0
    2.6441    1.6923   -0.7417 C   0  0  0  1  0  0  0  0  0  0  0  0
  1  2  1  0  0  0  0
  1  3  1  0  0  0  0
  1  4  1  0  0  0  0
  1  5  1  0  0  0  0
  5  6  1  0  0  0  0
  5  7  1  0  0  0  0
  5 10  1  0  0  0  0
  7  8  1  0  0  0  0
  7  9  2  0  0  0  0
 10 11  1  0  0  0  0
 10 12  1  0  0  0  0
 10 13  1  0  0  0  0
 13 14  1  0  0  0  0
 13 15  1  0  0  0  0
 13 16  1  0  0  0  0
 16 17  1  0  0  0  0
 16 21  1  0  0  0  0
 17 18  1  0  0  0  0
 17 19  1  0  0  0  0
 17 20  1  0  0  0  0
 21 22  1  0  0  0  0
 21 23  1  0  0  0  0
 21 24  1  0  0  0  0
 24 25  1  0  0  0  0
 24 26  1  0  0  0  0
 24 27  1  0  0  0  0
 26 35  1  0  0  0  0
 27 28  1  0  0  0  0
 27 29  1  0  0  0  0
 27 31  1  0  0  0  0
 29 30  1  0  0  0  0
 31 32  1  0  0  0  0
 31 33  1  0  0  0  0
 31 35  1  0  0  0  0
 33 34  1  0  0  0  0
 35 36  1  0  0  0  0
 35 37  1  0  0  0  0
 37 38  1  0  0  0  0
 37 50  1  0  0  0  0
 38 39  1  0  0  0  0
 38 40  2  0  0  0  0
 40 41  1  0  0  0  0
 41 42  1  0  0  0  0
 41 50  2  0  0  0  0
 42 43  1  0  0  0  0
 42 46  2  0  0  0  0
 43 44  1  0  0  0  0
 43 45  1  0  0  0  0
 46 47  1  0  0  0  0
 47 48  1  0  0  0  0
 47 49  2  0  0  0  0
 49 50  1  0  0  0  0
M  END
> <ConfClashScore>
0 

> <ConfOneFourInteractionScore>
-0.984131 

> <ConfScore>
-0.000261294 

> <ConfScorePBest>
0.0112875 

> <ConfTolerance>
1.2797 

$$$$
SAM.****
  PyMOL2.4          3D                             0

 50 52  0  0  0  0  0  0  0  0999 V2000
   -4.3085   -3.6850   -3.6620 N   0  3  0  1  0  0  0  0  0  0  0  0
   -3.9982   -4.5837   -4.1076 H   0  0  0  1  0  0  0  0  0  0  0  0
   -4.7256   -3.0577   -4.3934 H   0  0  0  1  0  0  0  0  0  0  0  0
   -5.0275   -3.8901   -2.9247 H   0  0  0  1  0  0  0  0  0  0  0  0
   -3.1358   -3.0083   -3.0374 C   0  0  0  1  0  0  0  0  0  0  0  0
   -2.3342   -2.9688   -3.7451 H   0  0  0  1  0  0  0  0  0  0  0  0
   -2.7094   -3.8384   -1.8759 C   0  0  0  1  0  0  0  0  0  0  0  0
   -1.3599   -3.8480   -1.7073 O   0  5  0  1  0  0  0  0  0  0  0  0
   -3.5074   -4.4336   -1.1707 O   0  0  0  1  0  0  0  0  0  0  0  0
   -3.4740   -1.5960   -2.6001 C   0  0  0  1  0  0  0  0  0  0  0  0
   -4.1409   -1.6500   -1.7651 H   0  0  0  1  0  0  0  0  0  0  0  0
   -3.9587   -1.0962   -3.4126 H   0  0  0  1  0  0  0  0  0  0  0  0
   -2.2565   -0.7840   -2.1925 C   0  0  0  1  0  0  0  0  0  0  0  0
   -2.1716    0.0666   -2.8362 H   0  0  0  1  0  0  0  0  0  0  0  0
   -1.3818   -1.3928   -2.2880 H   0  0  0  1  0  0  0  0  0  0  0  0
   -2.3982   -0.2244   -0.4988 S   0  3  0  1  0  0  0  0  0  0  0  0
   -1.3774    1.2476   -0.5728 C   0  0  0  1  0  0  0  0  0  0  0  0
   -1.2115    1.5162   -1.5951 H   0  0  0  1  0  0  0  0  0  0  0  0
   -0.4381    1.0542   -0.0982 H   0  0  0  1  0  0  0  0  0  0  0  0
   -1.8733    2.0509   -0.0691 H   0  0  0  1  0  0  0  0  0  0  0  0
   -1.4129   -1.3945    0.4470 C   0  0  0  1  0  0  0  0  0  0  0  0
   -1.9846   -2.2913    0.5643 H   0  0  0  1  0  0  0  0  0  0  0  0
   -1.2201   -0.9655    1.4081 H   0  0  0  1  0  0  0  0  0  0  0  0
   -0.0874   -1.7619   -0.1768 C   0  0  0  1  0  0  0  0  0  0  0  0
   -0.2573   -2.2802   -1.0974 H   0  0  0  1  0  0  0  0  0  0  0  0
    0.6882   -0.5755   -0.4169 O   0  0  0  1  0  0  0  0  0  0  0  0
    0.7196   -2.6527    0.7878 C   0  0  0  1  0  0  0  0  0  0  0  0
    0.1933   -2.7891    1.7093 H   0  0  0  1  0  0  0  0  0  0  0  0
    0.9873   -3.9259    0.1985 O   0  0  0  1  0  0  0  0  0  0  0  0
    1.9120   -4.1501    0.3262 H   0  0  0  1  0  0  0  0  0  0  0  0
    2.0361   -1.8634    1.0165 C   0  0  0  1  0  0  0  0  0  0  0  0
    1.9990   -1.3014    1.9263 H   0  0  0  1  0  0  0  0  0  0  0  0
    3.1664   -2.7364    1.0412 O   0  0  0  1  0  0  0  0  0  0  0  0
    3.8151   -2.4389    0.3991 H   0  0  0  1  0  0  0  0  0  0  0  0
    2.0731   -0.9298   -0.2204 C   0  0  0  1  0  0  0  0  0  0  0  0
    2.4615   -1.4430   -1.0752 H   0  0  0  1  0  0  0  0  0  0  0  0
    2.8840    0.2588    0.0458 N   0  0  0  1  0  0  0  0  0  0  0  0
    4.0054    0.6006   -0.6460 C   0  0  0  1  0  0  0  0  0  0  0  0
    4.3288    0.0737   -1.4823 H   0  0  0  1  0  0  0  0  0  0  0  0
    4.6442    1.6394   -0.1807 N   0  0  0  1  0  0  0  0  0  0  0  0
    3.8802    2.0294    0.9083 C   0  0  0  1  0  0  0  0  0  0  0  0
    3.9856    3.0453    1.8536 C   0  0  0  1  0  0  0  0  0  0  0  0
    4.9966    3.9985    1.9099 N   0  0  0  1  0  0  0  0  0  0  0  0
    5.0153    4.6503    2.6414 H   0  0  0  1  0  0  0  0  0  0  0  0
    5.6902    4.0185    1.2179 H   0  0  0  1  0  0  0  0  0  0  0  0
    3.0597    3.1576    2.8122 N   0  0  0  1  0  0  0  0  0  0  0  0
    2.0598    2.2621    2.8295 C   0  0  0  1  0  0  0  0  0  0  0  0
    1.3629    2.3808    3.5923 H   0  0  0  1  0  0  0  0  0  0  0  0
    1.8405    1.2457    2.0045 N   0  0  0  1  0  0  0  0  0  0  0  0
    2.7786    1.1764    1.0590 C   0  0  0  1  0  0  0  0  0  0  0  0
  1  2  1  0  0  0  0
  1  3  1  0  0  0  0
  1  4  1  0  0  0  0
  1  5  1  0  0  0  0
  5  6  1  0  0  0  0
  5  7  1  0  0  0  0
  5 10  1  0  0  0  0
  7  8  1  0  0  0  0
  7  9  2  0  0  0  0
 10 11  1  0  0  0  0
 10 12  1  0  0  0  0
 10 13  1  0  0  0  0
 13 14  1  0  0  0  0
 13 15  1  0  0  0  0
 13 16  1  0  0  0  0
 16 17  1  0  0  0  0
 16 21  1  0  0  0  0
 17 18  1  0  0  0  0
 17 19  1  0  0  0  0
 17 20  1  0  0  0  0
 21 22  1  0  0  0  0
 21 23  1  0  0  0  0
 21 24  1  0  0  0  0
 24 25  1  0  0  0  0
 24 26  1  0  0  0  0
 24 27  1  0  0  0  0
 26 35  1  0  0  0  0
 27 28  1  0  0  0  0
 27 29  1  0  0  0  0
 27 31  1  0  0  0  0
 29 30  1  0  0  0  0
 31 32  1  0  0  0  0
 31 33  1  0  0  0  0
 31 35  1  0  0  0  0
 33 34  1  0  0  0  0
 35 36  1  0  0  0  0
 35 37  1  0  0  0  0
 37 38  1  0  0  0  0
 37 50  1  0  0  0  0
 38 39  1  0  0  0  0
 38 40  2  0  0  0  0
 40 41  1  0  0  0  0
 41 42  1  0  0  0  0
 41 50  2  0  0  0  0
 42 43  1  0  0  0  0
 42 46  2  0  0  0  0
 43 44  1  0  0  0  0
 43 45  1  0  0  0  0
 46 47  1  0  0  0  0
 47 48  1  0  0  0  0
 47 49  2  0  0  0  0
 49 50  1  0  0  0  0
M  END
> <ConfClashScore>
0 

> <ConfOneFourInteractionScore>
-0.983398 

> <ConfScore>
0.000125776 

> <ConfScorePBest>
0.0111845 

> <ConfTolerance>
1.28854 

$$$$
SAM.****
  PyMOL2.4          3D                             0

 50 52  0  0  0  0  0  0  0  0999 V2000
   -4.5862   -3.1776    5.4249 N   0  3  0  1  0  0  0  0  0  0  0  0
   -4.8390   -4.1967    5.4346 H   0  0  0  1  0  0  0  0  0  0  0  0
   -5.1881   -2.6614    6.1132 H   0  0  0  1  0  0  0  0  0  0  0  0
   -3.5762   -3.0652    5.6891 H   0  0  0  1  0  0  0  0  0  0  0  0
   -4.8076   -2.6209    4.0531 C   0  0  0  1  0  0  0  0  0  0  0  0
   -5.0221   -1.5739    4.1059 H   0  0  0  1  0  0  0  0  0  0  0  0
   -5.9736   -3.3491    3.4785 C   0  0  0  1  0  0  0  0  0  0  0  0
   -6.8164   -2.5091    2.8199 O   0  5  0  1  0  0  0  0  0  0  0  0
   -6.1604   -4.5505    3.5795 O   0  0  0  1  0  0  0  0  0  0  0  0
   -3.5724   -2.8533    3.2044 C   0  0  0  1  0  0  0  0  0  0  0  0
   -3.3801   -3.9051    3.1661 H   0  0  0  1  0  0  0  0  0  0  0  0
   -2.7452   -2.3555    3.6658 H   0  0  0  1  0  0  0  0  0  0  0  0
   -3.7129   -2.3372    1.7825 C   0  0  0  1  0  0  0  0  0  0  0  0
   -3.6426   -1.2695    1.7891 H   0  0  0  1  0  0  0  0  0  0  0  0
   -4.6669   -2.6300    1.3965 H   0  0  0  1  0  0  0  0  0  0  0  0
   -2.4310   -2.9996    0.7339 S   0  3  0  1  0  0  0  0  0  0  0  0
   -1.4952   -3.9858    1.8983 C   0  0  0  1  0  0  0  0  0  0  0  0
   -1.3021   -3.4104    2.7795 H   0  0  0  1  0  0  0  0  0  0  0  0
   -0.5672   -4.2779    1.4529 H   0  0  0  1  0  0  0  0  0  0  0  0
   -2.0569   -4.8585    2.1585 H   0  0  0  1  0  0  0  0  0  0  0  0
   -1.3547   -1.5685    0.5284 C   0  0  0  1  0  0  0  0  0  0  0  0
   -1.1406   -1.1866    1.5047 H   0  0  0  1  0  0  0  0  0  0  0  0
   -1.8995   -0.8363   -0.0301 H   0  0  0  1  0  0  0  0  0  0  0  0
   -0.0327   -1.7807   -0.1738 C   0  0  0  1  0  0  0  0  0  0  0  0
   -0.1983   -2.2868   -1.1019 H   0  0  0  1  0  0  0  0  0  0  0  0
    0.6058   -0.5149   -0.4117 O   0  0  0  1  0  0  0  0  0  0  0  0
    0.9100   -2.6118    0.7183 C   0  0  0  1  0  0  0  0  0  0  0  0
    0.4498   -2.8278    1.6598 H   0  0  0  1  0  0  0  0  0  0  0  0
    1.2726   -3.8335    0.0733 O   0  0  0  1  0  0  0  0  0  0  0  0
    1.5745   -4.4653    0.7300 H   0  0  0  1  0  0  0  0  0  0  0  0
    2.1508   -1.6991    0.9077 C   0  0  0  1  0  0  0  0  0  0  0  0
    2.1057   -1.1703    1.8369 H   0  0  0  1  0  0  0  0  0  0  0  0
    3.3627   -2.4524    0.8461 O   0  0  0  1  0  0  0  0  0  0  0  0
    3.1564   -3.3893    0.8135 H   0  0  0  1  0  0  0  0  0  0  0  0
    2.0279   -0.7313   -0.2969 C   0  0  0  1  0  0  0  0  0  0  0  0
    2.4198   -1.1772   -1.1871 H   0  0  0  1  0  0  0  0  0  0  0  0
    2.7277    0.5249   -0.0314 N   0  0  0  1  0  0  0  0  0  0  0  0
    2.2067    1.6329    0.5633 C   0  0  0  1  0  0  0  0  0  0  0  0
    1.2696    1.6371    1.0142 H   0  0  0  1  0  0  0  0  0  0  0  0
    2.9719    2.6897    0.5249 N   0  0  0  1  0  0  0  0  0  0  0  0
    4.1027    2.2476   -0.1440 C   0  0  0  1  0  0  0  0  0  0  0  0
    5.2956    2.8484   -0.5353 C   0  0  0  1  0  0  0  0  0  0  0  0
    5.5366    4.1624   -0.2578 N   0  0  0  1  0  0  0  0  0  0  0  0
    4.8818    4.6836    0.2520 H   0  0  0  1  0  0  0  0  0  0  0  0
    6.3645    4.5849   -0.5684 H   0  0  0  1  0  0  0  0  0  0  0  0
    6.2154    2.1314   -1.1900 N   0  0  0  1  0  0  0  0  0  0  0  0
    5.9377    0.8457   -1.4580 C   0  0  0  1  0  0  0  0  0  0  0  0
    6.6760    0.3237   -1.9717 H   0  0  0  1  0  0  0  0  0  0  0  0
    4.8479    0.1506   -1.1558 N   0  0  0  1  0  0  0  0  0  0  0  0
    3.9628    0.8982   -0.4951 C   0  0  0  1  0  0  0  0  0  0  0  0
  1  2  1  0  0  0  0
  1  3  1  0  0  0  0
  1  4  1  0  0  0  0
  1  5  1  0  0  0  0
  5  6  1  0  0  0  0
  5  7  1  0  0  0  0
  5 10  1  0  0  0  0
  7  8  1  0  0  0  0
  7  9  2  0  0  0  0
 10 11  1  0  0  0  0
 10 12  1  0  0  0  0
 10 13  1  0  0  0  0
 13 14  1  0  0  0  0
 13 15  1  0  0  0  0
 13 16  1  0  0  0  0
 16 17  1  0  0  0  0
 16 21  1  0  0  0  0
 17 18  1  0  0  0  0
 17 19  1  0  0  0  0
 17 20  1  0  0  0  0
 21 22  1  0  0  0  0
 21 23  1  0  0  0  0
 21 24  1  0  0  0  0
 24 25  1  0  0  0  0
 24 26  1  0  0  0  0
 24 27  1  0  0  0  0
 26 35  1  0  0  0  0
 27 28  1  0  0  0  0
 27 29  1  0  0  0  0
 27 31  1  0  0  0  0
 29 30  1  0  0  0  0
 31 32  1  0  0  0  0
 31 33  1  0  0  0  0
 31 35  1  0  0  0  0
 33 34  1  0  0  0  0
 35 36  1  0  0  0  0
 35 37  1  0  0  0  0
 37 38  1  0  0  0  0
 37 50  1  0  0  0  0
 38 39  1  0  0  0  0
 38 40  2  0  0  0  0
 40 41  1  0  0  0  0
 41 42  1  0  0  0  0
 41 50  2  0  0  0  0
 42 43  1  0  0  0  0
 42 46  2  0  0  0  0
 43 44  1  0  0  0  0
 43 45  1  0  0  0  0
 46 47  1  0  0  0  0
 47 48  1  0  0  0  0
 47 49  2  0  0  0  0
 49 50  1  0  0  0  0
M  END
> <ConfClashScore>
0 

> <ConfOneFourInteractionScore>
-0.972424 

> <ConfScore>
0.00190264 

> <ConfScorePBest>
0.0110815 

> <ConfTolerance>
1.0708 

$$$$
SAM.****
  PyMOL2.4          3D                             0

 50 52  0  0  0  0  0  0  0  0999 V2000
   -5.5977   -3.3985    2.7589 N   0  3  0  1  0  0  0  0  0  0  0  0
   -5.2040   -4.0429    2.0293 H   0  0  0  1  0  0  0  0  0  0  0  0
   -6.6170   -3.2347    2.5676 H   0  0  0  1  0  0  0  0  0  0  0  0
   -5.4847   -3.8339    3.7077 H   0  0  0  1  0  0  0  0  0  0  0  0
   -4.8702   -2.0990    2.7194 C   0  0  0  1  0  0  0  0  0  0  0  0
   -3.8970   -2.2492    3.1380 H   0  0  0  1  0  0  0  0  0  0  0  0
   -5.5919   -1.1311    3.5927 C   0  0  0  1  0  0  0  0  0  0  0  0
   -5.0472    0.1130    3.5219 O   0  5  0  1  0  0  0  0  0  0  0  0
   -6.5540   -1.4085    4.2897 O   0  0  0  1  0  0  0  0  0  0  0  0
   -4.6914   -1.5660    1.3195 C   0  0  0  1  0  0  0  0  0  0  0  0
   -5.6406   -1.2079    0.9794 H   0  0  0  1  0  0  0  0  0  0  0  0
   -4.3711   -2.3754    0.6971 H   0  0  0  1  0  0  0  0  0  0  0  0
   -3.8761   -0.6510    1.2009 C   0  0  0  1  0  0  0  0  0  0  0  0
   -4.2658    0.2016    1.7169 H   0  0  0  1  0  0  0  0  0  0  0  0
   -3.7865   -0.4274    0.1584 H   0  0  0  1  0  0  0  0  0  0  0  0
   -2.2277   -0.9677    1.8358 S   0  3  0  1  0  0  0  0  0  0  0  0
   -1.6282    0.7119    1.9245 C   0  0  0  1  0  0  0  0  0  0  0  0
   -0.8789    0.8637    1.1759 H   0  0  0  1  0  0  0  0  0  0  0  0
   -1.2066    0.8892    2.8918 H   0  0  0  1  0  0  0  0  0  0  0  0
   -2.4398    1.3892    1.7589 H   0  0  0  1  0  0  0  0  0  0  0  0
   -1.3507   -1.6051    0.4933 C   0  0  0  1  0  0  0  0  0  0  0  0
   -1.7708   -1.0089   -0.2896 H   0  0  0  1  0  0  0  0  0  0  0  0
   -1.7722   -2.5880    0.4591 H   0  0  0  1  0  0  0  0  0  0  0  0
    0.0028   -1.8947   -0.1149 C   0  0  0  1  0  0  0  0  0  0  0  0
   -0.1192   -2.5119   -0.9804 H   0  0  0  1  0  0  0  0  0  0  0  0
    0.6522   -0.6642   -0.4767 O   0  0  0  1  0  0  0  0  0  0  0  0
    0.9022   -2.6047    0.9157 C   0  0  0  1  0  0  0  0  0  0  0  0
    0.3982   -2.7059    1.8541 H   0  0  0  1  0  0  0  0  0  0  0  0
    1.2944   -3.8944    0.4435 O   0  0  0  1  0  0  0  0  0  0  0  0
    1.3114   -3.8928   -0.5163 H   0  0  0  1  0  0  0  0  0  0  0  0
    2.1330   -1.6688    1.0491 C   0  0  0  1  0  0  0  0  0  0  0  0
    2.0445   -1.0301    1.9030 H   0  0  0  1  0  0  0  0  0  0  0  0
    3.3469   -2.4177    1.1373 O   0  0  0  1  0  0  0  0  0  0  0  0
    3.2404   -3.2555    0.6810 H   0  0  0  1  0  0  0  0  0  0  0  0
    2.0672   -0.8571   -0.2699 C   0  0  0  1  0  0  0  0  0  0  0  0
    2.5004   -1.4069   -1.0791 H   0  0  0  1  0  0  0  0  0  0  0  0
    2.7541    0.4258   -0.1286 N   0  0  0  1  0  0  0  0  0  0  0  0
    3.7996    0.9162   -0.8491 C   0  0  0  1  0  0  0  0  0  0  0  0
    4.1873    0.4229   -1.6786 H   0  0  0  1  0  0  0  0  0  0  0  0
    4.2789    2.0522   -0.4207 N   0  0  0  1  0  0  0  0  0  0  0  0
    3.4806    2.3496    0.6728 C   0  0  0  1  0  0  0  0  0  0  0  0
    3.4434    3.3943    1.5916 C   0  0  0  1  0  0  0  0  0  0  0  0
    4.2975    4.4917    1.6063 N   0  0  0  1  0  0  0  0  0  0  0  0
    5.0211    4.5582    0.9487 H   0  0  0  1  0  0  0  0  0  0  0  0
    4.1758    5.1985    2.2741 H   0  0  0  1  0  0  0  0  0  0  0  0
    2.5256    3.3894    2.5644 N   0  0  0  1  0  0  0  0  0  0  0  0
    1.6747    2.3527    2.6217 C   0  0  0  1  0  0  0  0  0  0  0  0
    0.9793    2.3838    3.3943 H   0  0  0  1  0  0  0  0  0  0  0  0
    1.6011    1.2933    1.8253 N   0  0  0  1  0  0  0  0  0  0  0  0
    2.5247    1.3430    0.8643 C   0  0  0  1  0  0  0  0  0  0  0  0
  1  2  1  0  0  0  0
  1  3  1  0  0  0  0
  1  4  1  0  0  0  0
  1  5  1  0  0  0  0
  5  6  1  0  0  0  0
  5  7  1  0  0  0  0
  5 10  1  0  0  0  0
  7  8  1  0  0  0  0
  7  9  2  0  0  0  0
 10 11  1  0  0  0  0
 10 12  1  0  0  0  0
 10 13  1  0  0  0  0
 13 14  1  0  0  0  0
 13 15  1  0  0  0  0
 13 16  1  0  0  0  0
 16 17  1  0  0  0  0
 16 21  1  0  0  0  0
 17 18  1  0  0  0  0
 17 19  1  0  0  0  0
 17 20  1  0  0  0  0
 21 22  1  0  0  0  0
 21 23  1  0  0  0  0
 21 24  1  0  0  0  0
 24 25  1  0  0  0  0
 24 26  1  0  0  0  0
 24 27  1  0  0  0  0
 26 35  1  0  0  0  0
 27 28  1  0  0  0  0
 27 29  1  0  0  0  0
 27 31  1  0  0  0  0
 29 30  1  0  0  0  0
 31 32  1  0  0  0  0
 31 33  1  0  0  0  0
 31 35  1  0  0  0  0
 33 34  1  0  0  0  0
 35 36  1  0  0  0  0
 35 37  1  0  0  0  0
 37 38  1  0  0  0  0
 37 50  1  0  0  0  0
 38 39  1  0  0  0  0
 38 40  2  0  0  0  0
 40 41  1  0  0  0  0
 41 42  1  0  0  0  0
 41 50  2  0  0  0  0
 42 43  1  0  0  0  0
 42 46  2  0  0  0  0
 43 44  1  0  0  0  0
 43 45  1  0  0  0  0
 46 47  1  0  0  0  0
 47 48  1  0  0  0  0
 47 49  2  0  0  0  0
 49 50  1  0  0  0  0
M  END
> <ConfClashScore>
0.00062128 

> <ConfOneFourInteractionScore>
-0.991275 

> <ConfScore>
0.00230372 

> <ConfScorePBest>
0.0109785 

> <ConfTolerance>
1.17601 

$$$$
SAM.****
  PyMOL2.4          3D                             0

 50 52  0  0  0  0  0  0  0  0999 V2000
   -5.6566   -5.3945   -2.3837 N   0  3  0  1  0  0  0  0  0  0  0  0
   -6.3223   -4.6756   -2.7611 H   0  0  0  1  0  0  0  0  0  0  0  0
   -6.1350   -5.9562   -1.6366 H   0  0  0  1  0  0  0  0  0  0  0  0
   -5.3527   -6.0319   -3.1608 H   0  0  0  1  0  0  0  0  0  0  0  0
   -4.4644   -4.7134   -1.8056 C   0  0  0  1  0  0  0  0  0  0  0  0
   -4.0654   -4.0201   -2.5162 H   0  0  0  1  0  0  0  0  0  0  0  0
   -3.4368   -5.7484   -1.5006 C   0  0  0  1  0  0  0  0  0  0  0  0
   -2.2402   -5.2086   -1.1451 O   0  5  0  1  0  0  0  0  0  0  0  0
   -3.6727   -6.9433   -1.5709 O   0  0  0  1  0  0  0  0  0  0  0  0
   -4.8690   -3.9606   -0.5475 C   0  0  0  1  0  0  0  0  0  0  0  0
   -5.1565   -4.6645    0.2054 H   0  0  0  1  0  0  0  0  0  0  0  0
   -5.6963   -3.3204   -0.7725 H   0  0  0  1  0  0  0  0  0  0  0  0
   -3.7294   -3.1302   -0.0351 C   0  0  0  1  0  0  0  0  0  0  0  0
   -4.2689   -2.4754    0.6169 H   0  0  0  1  0  0  0  0  0  0  0  0
   -3.4744   -2.6086   -0.9339 H   0  0  0  1  0  0  0  0  0  0  0  0
   -2.1228   -3.1074    0.7859 S   0  3  0  1  0  0  0  0  0  0  0  0
   -2.5793   -2.5794    2.4434 C   0  0  0  1  0  0  0  0  0  0  0  0
   -2.5415   -1.5116    2.5012 H   0  0  0  1  0  0  0  0  0  0  0  0
   -1.8961   -2.9990    3.1520 H   0  0  0  1  0  0  0  0  0  0  0  0
   -3.5718   -2.9133    2.6632 H   0  0  0  1  0  0  0  0  0  0  0  0
   -1.3178   -1.6755    0.0443 C   0  0  0  1  0  0  0  0  0  0  0  0
   -1.3282   -0.8575    0.7340 H   0  0  0  1  0  0  0  0  0  0  0  0
   -1.8327   -1.3947   -0.8507 H   0  0  0  1  0  0  0  0  0  0  0  0
    0.1088   -2.0483   -0.2836 C   0  0  0  1  0  0  0  0  0  0  0  0
    0.1147   -2.8711   -0.9676 H   0  0  0  1  0  0  0  0  0  0  0  0
    0.7973   -0.9214   -0.8563 O   0  0  0  1  0  0  0  0  0  0  0  0
    0.8333   -2.4035    0.9416 C   0  0  0  1  0  0  0  0  0  0  0  0
    0.3883   -1.9289    1.7910 H   0  0  0  1  0  0  0  0  0  0  0  0
    0.8317   -3.8079    1.1296 O   0  0  0  1  0  0  0  0  0  0  0  0
    0.9793   -4.2441    0.2872 H   0  0  0  1  0  0  0  0  0  0  0  0
    2.2520   -1.8958    0.7300 C   0  0  0  1  0  0  0  0  0  0  0  0
    2.7238   -1.6499    1.6583 H   0  0  0  1  0  0  0  0  0  0  0  0
    3.0506   -2.8488    0.0271 O   0  0  0  1  0  0  0  0  0  0  0  0
    3.8095   -3.0890    0.5638 H   0  0  0  1  0  0  0  0  0  0  0  0
    1.9923   -0.6478   -0.1160 C   0  0  0  1  0  0  0  0  0  0  0  0
    2.8112   -0.4719   -0.7819 H   0  0  0  1  0  0  0  0  0  0  0  0
    1.8028    0.5197    0.7435 N   0  0  0  1  0  0  0  0  0  0  0  0
    0.6270    1.1369    1.0426 C   0  0  0  1  0  0  0  0  0  0  0  0
   -0.2871    0.8089    0.6707 H   0  0  0  1  0  0  0  0  0  0  0  0
    0.7333    2.1714    1.8314 N   0  0  0  1  0  0  0  0  0  0  0  0
    2.0936    2.2460    2.0875 C   0  0  0  1  0  0  0  0  0  0  0  0
    2.8948    3.1047    2.8344 C   0  0  0  1  0  0  0  0  0  0  0  0
    2.3957    4.1660    3.5423 N   0  0  0  1  0  0  0  0  0  0  0  0
    2.9844    4.6823    4.1317 H   0  0  0  1  0  0  0  0  0  0  0  0
    1.4499    4.4090    3.4595 H   0  0  0  1  0  0  0  0  0  0  0  0
    4.2167    2.9066    2.8796 N   0  0  0  1  0  0  0  0  0  0  0  0
    4.7235    1.8793    2.1798 C   0  0  0  1  0  0  0  0  0  0  0  0
    5.7552    1.7613    2.2374 H   0  0  0  1  0  0  0  0  0  0  0  0
    4.0857    0.9937    1.4242 N   0  0  0  1  0  0  0  0  0  0  0  0
    2.7713    1.2199    1.4154 C   0  0  0  1  0  0  0  0  0  0  0  0
  1  2  1  0  0  0  0
  1  3  1  0  0  0  0
  1  4  1  0  0  0  0
  1  5  1  0  0  0  0
  5  6  1  0  0  0  0
  5  7  1  0  0  0  0
  5 10  1  0  0  0  0
  7  8  1  0  0  0  0
  7  9  2  0  0  0  0
 10 11  1  0  0  0  0
 10 12  1  0  0  0  0
 10 13  1  0  0  0  0
 13 14  1  0  0  0  0
 13 15  1  0  0  0  0
 13 16  1  0  0  0  0
 16 17  1  0  0  0  0
 16 21  1  0  0  0  0
 17 18  1  0  0  0  0
 17 19  1  0  0  0  0
 17 20  1  0  0  0  0
 21 22  1  0  0  0  0
 21 23  1  0  0  0  0
 21 24  1  0  0  0  0
 24 25  1  0  0  0  0
 24 26  1  0  0  0  0
 24 27  1  0  0  0  0
 26 35  1  0  0  0  0
 27 28  1  0  0  0  0
 27 29  1  0  0  0  0
 27 31  1  0  0  0  0
 29 30  1  0  0  0  0
 31 32  1  0  0  0  0
 31 33  1  0  0  0  0
 31 35  1  0  0  0  0
 33 34  1  0  0  0  0
 35 36  1  0  0  0  0
 35 37  1  0  0  0  0
 37 38  1  0  0  0  0
 37 50  1  0  0  0  0
 38 39  1  0  0  0  0
 38 40  2  0  0  0  0
 40 41  1  0  0  0  0
 41 42  1  0  0  0  0
 41 50  2  0  0  0  0
 42 43  1  0  0  0  0
 42 46  2  0  0  0  0
 43 44  1  0  0  0  0
 43 45  1  0  0  0  0
 46 47  1  0  0  0  0
 47 48  1  0  0  0  0
 47 49  2  0  0  0  0
 49 50  1  0  0  0  0
M  END
> <ConfClashScore>
0 

> <ConfOneFourInteractionScore>
-0.986105 

> <ConfScore>
0.00378031 

> <ConfScorePBest>
0.0108755 

> <ConfTolerance>
1.14478 

$$$$
SAM.****
  PyMOL2.4          3D                             0

 50 52  0  0  0  0  0  0  0  0999 V2000
   -2.3752   -1.1501    6.8196 N   0  3  0  1  0  0  0  0  0  0  0  0
   -1.6523   -1.5315    7.4786 H   0  0  0  1  0  0  0  0  0  0  0  0
   -3.3232   -1.2113    7.2668 H   0  0  0  1  0  0  0  0  0  0  0  0
   -2.1548   -0.1470    6.6011 H   0  0  0  1  0  0  0  0  0  0  0  0
   -2.3686   -1.9454    5.5598 C   0  0  0  1  0  0  0  0  0  0  0  0
   -3.2456   -1.6998    4.9981 H   0  0  0  1  0  0  0  0  0  0  0  0
   -2.4205   -3.3986    5.8847 C   0  0  0  1  0  0  0  0  0  0  0  0
   -3.0792   -4.1801    4.9876 O   0  5  0  1  0  0  0  0  0  0  0  0
   -1.9018   -3.8476    6.8936 O   0  0  0  1  0  0  0  0  0  0  0  0
   -1.1526   -1.6010    4.7136 C   0  0  0  1  0  0  0  0  0  0  0  0
   -0.2823   -1.9980    5.1930 H   0  0  0  1  0  0  0  0  0  0  0  0
   -1.0723   -0.5358    4.6527 H   0  0  0  1  0  0  0  0  0  0  0  0
   -1.2227   -2.1602    3.3028 C   0  0  0  1  0  0  0  0  0  0  0  0
   -2.1500   -2.6757    3.1641 H   0  0  0  1  0  0  0  0  0  0  0  0
   -0.4101   -2.8374    3.1417 H   0  0  0  1  0  0  0  0  0  0  0  0
   -1.1100   -0.7867    2.1413 S   0  3  0  1  0  0  0  0  0  0  0  0
   -3.0739   -0.3856    2.1577 C   0  0  0  1  0  0  0  0  0  0  0  0
   -3.3072    0.2221    3.0069 H   0  0  0  1  0  0  0  0  0  0  0  0
   -3.6243   -1.3015    2.2128 H   0  0  0  1  0  0  0  0  0  0  0  0
   -3.3384    0.1367    1.2621 H   0  0  0  1  0  0  0  0  0  0  0  0
   -1.2791   -1.5493    0.5111 C   0  0  0  1  0  0  0  0  0  0  0  0
   -1.8381   -0.8821   -0.1111 H   0  0  0  1  0  0  0  0  0  0  0  0
   -1.8189   -2.4657    0.6277 H   0  0  0  1  0  0  0  0  0  0  0  0
    0.0247   -1.8586   -0.1860 C   0  0  0  1  0  0  0  0  0  0  0  0
   -0.1411   -2.4051   -1.0908 H   0  0  0  1  0  0  0  0  0  0  0  0
    0.6147   -0.5701   -0.4272 O   0  0  0  1  0  0  0  0  0  0  0  0
    0.9726   -2.6311    0.7520 C   0  0  0  1  0  0  0  0  0  0  0  0
    0.4913   -2.8507    1.6820 H   0  0  0  1  0  0  0  0  0  0  0  0
    1.4097   -3.8468    0.1426 O   0  0  0  1  0  0  0  0  0  0  0  0
    0.9580   -4.5897    0.5495 H   0  0  0  1  0  0  0  0  0  0  0  0
    2.1652   -1.6610    0.9642 C   0  0  0  1  0  0  0  0  0  0  0  0
    2.0662   -1.1184    1.8811 H   0  0  0  1  0  0  0  0  0  0  0  0
    3.4104   -2.3607    0.9564 O   0  0  0  1  0  0  0  0  0  0  0  0
    3.2876   -3.2291    0.5660 H   0  0  0  1  0  0  0  0  0  0  0  0
    2.0402   -0.7211   -0.2621 C   0  0  0  1  0  0  0  0  0  0  0  0
    2.4807   -1.1648   -1.1304 H   0  0  0  1  0  0  0  0  0  0  0  0
    2.6767    0.5726    0.0025 N   0  0  0  1  0  0  0  0  0  0  0  0
    2.4470    1.4040    1.0555 C   0  0  0  1  0  0  0  0  0  0  0  0
    1.7141    1.2141    1.7685 H   0  0  0  1  0  0  0  0  0  0  0  0
    3.2159    2.4577    1.1030 N   0  0  0  1  0  0  0  0  0  0  0  0
    4.0337    2.3131   -0.0069 C   0  0  0  1  0  0  0  0  0  0  0  0
    5.0621    3.0705   -0.5598 C   0  0  0  1  0  0  0  0  0  0  0  0
    5.4569    4.2390    0.0239 N   0  0  0  1  0  0  0  0  0  0  0  0
    4.9976    4.5660    0.8254 H   0  0  0  1  0  0  0  0  0  0  0  0
    6.1998    4.7512   -0.3585 H   0  0  0  1  0  0  0  0  0  0  0  0
    5.6701    2.6498   -1.6743 N   0  0  0  1  0  0  0  0  0  0  0  0
    5.2456    1.5032   -2.2283 C   0  0  0  1  0  0  0  0  0  0  0  0
    5.7405    1.2124   -3.0955 H   0  0  0  1  0  0  0  0  0  0  0  0
    4.2793    0.6904   -1.8188 N   0  0  0  1  0  0  0  0  0  0  0  0
    3.7077    1.1401   -0.7007 C   0  0  0  1  0  0  0  0  0  0  0  0
  1  2  1  0  0  0  0
  1  3  1  0  0  0  0
  1  4  1  0  0  0  0
  1  5  1  0  0  0  0
  5  6  1  0  0  0  0
  5  7  1  0  0  0  0
  5 10  1  0  0  0  0
  7  8  1  0  0  0  0
  7  9  2  0  0  0  0
 10 11  1  0  0  0  0
 10 12  1  0  0  0  0
 10 13  1  0  0  0  0
 13 14  1  0  0  0  0
 13 15  1  0  0  0  0
 13 16  1  0  0  0  0
 16 17  1  0  0  0  0
 16 21  1  0  0  0  0
 17 18  1  0  0  0  0
 17 19  1  0  0  0  0
 17 20  1  0  0  0  0
 21 22  1  0  0  0  0
 21 23  1  0  0  0  0
 21 24  1  0  0  0  0
 24 25  1  0  0  0  0
 24 26  1  0  0  0  0
 24 27  1  0  0  0  0
 26 35  1  0  0  0  0
 27 28  1  0  0  0  0
 27 29  1  0  0  0  0
 27 31  1  0  0  0  0
 29 30  1  0  0  0  0
 31 32  1  0  0  0  0
 31 33  1  0  0  0  0
 31 35  1  0  0  0  0
 33 34  1  0  0  0  0
 35 36  1  0  0  0  0
 35 37  1  0  0  0  0
 37 38  1  0  0  0  0
 37 50  1  0  0  0  0
 38 39  1  0  0  0  0
 38 40  2  0  0  0  0
 40 41  1  0  0  0  0
 41 42  1  0  0  0  0
 41 50  2  0  0  0  0
 42 43  1  0  0  0  0
 42 46  2  0  0  0  0
 43 44  1  0  0  0  0
 43 45  1  0  0  0  0
 46 47  1  0  0  0  0
 47 48  1  0  0  0  0
 47 49  2  0  0  0  0
 49 50  1  0  0  0  0
M  END
> <ConfClashScore>
0 

> <ConfOneFourInteractionScore>
-0.988075 

> <ConfScore>
0.00378495 

> <ConfScorePBest>
0.0107725 

> <ConfTolerance>
1.07136 

$$$$
SAM.****
  PyMOL2.4          3D                             0

 50 52  0  0  0  0  0  0  0  0999 V2000
    0.6405   -1.2590    5.6038 N   0  3  0  1  0  0  0  0  0  0  0  0
    0.4129   -1.9380    6.3717 H   0  0  0  1  0  0  0  0  0  0  0  0
    1.0473   -0.3847    6.0192 H   0  0  0  1  0  0  0  0  0  0  0  0
    1.3369   -1.6927    4.9484 H   0  0  0  1  0  0  0  0  0  0  0  0
   -0.6055   -0.9199    4.8526 C   0  0  0  1  0  0  0  0  0  0  0  0
   -0.3425   -0.2329    4.0757 H   0  0  0  1  0  0  0  0  0  0  0  0
   -1.5951   -0.2413    5.7361 C   0  0  0  1  0  0  0  0  0  0  0  0
   -2.3799    0.6244    5.0403 O   0  5  0  1  0  0  0  0  0  0  0  0
   -1.6983   -0.4305    6.9369 O   0  0  0  1  0  0  0  0  0  0  0  0
   -1.1469   -2.1641    4.1932 C   0  0  0  1  0  0  0  0  0  0  0  0
   -1.5606   -2.7886    4.9572 H   0  0  0  1  0  0  0  0  0  0  0  0
   -0.3298   -2.6696    3.7222 H   0  0  0  1  0  0  0  0  0  0  0  0
   -2.2081   -1.9365    3.1574 C   0  0  0  1  0  0  0  0  0  0  0  0
   -2.2949   -0.8722    3.2263 H   0  0  0  1  0  0  0  0  0  0  0  0
   -3.0380   -2.3953    3.6530 H   0  0  0  1  0  0  0  0  0  0  0  0
   -2.7244   -2.1652    1.4415 S   0  3  0  1  0  0  0  0  0  0  0  0
   -2.3727   -3.9233    1.2394 C   0  0  0  1  0  0  0  0  0  0  0  0
   -2.2608   -4.3780    2.2014 H   0  0  0  1  0  0  0  0  0  0  0  0
   -1.4682   -4.0439    0.6807 H   0  0  0  1  0  0  0  0  0  0  0  0
   -3.1807   -4.3905    0.7161 H   0  0  0  1  0  0  0  0  0  0  0  0
   -1.3617   -1.4910    0.6253 C   0  0  0  1  0  0  0  0  0  0  0  0
   -0.9678   -0.8840    1.4136 H   0  0  0  1  0  0  0  0  0  0  0  0
   -1.8706   -0.8709   -0.0828 H   0  0  0  1  0  0  0  0  0  0  0  0
   -0.0895   -1.7530   -0.1445 C   0  0  0  1  0  0  0  0  0  0  0  0
   -0.3239   -2.2468   -1.0643 H   0  0  0  1  0  0  0  0  0  0  0  0
    0.5874   -0.5132   -0.4112 O   0  0  0  1  0  0  0  0  0  0  0  0
    0.8631   -2.6270    0.6944 C   0  0  0  1  0  0  0  0  0  0  0  0
    0.4439   -2.8291    1.6580 H   0  0  0  1  0  0  0  0  0  0  0  0
    1.1410   -3.8590    0.0274 O   0  0  0  1  0  0  0  0  0  0  0  0
    1.7374   -4.3864    0.5638 H   0  0  0  1  0  0  0  0  0  0  0  0
    2.1486   -1.7670    0.8220 C   0  0  0  1  0  0  0  0  0  0  0  0
    2.1738   -1.2420    1.7540 H   0  0  0  1  0  0  0  0  0  0  0  0
    3.3237   -2.5691    0.6947 O   0  0  0  1  0  0  0  0  0  0  0  0
    3.4323   -3.1057    1.4833 H   0  0  0  1  0  0  0  0  0  0  0  0
    2.0034   -0.7884   -0.3714 C   0  0  0  1  0  0  0  0  0  0  0  0
    2.3298   -1.2452   -1.2823 H   0  0  0  1  0  0  0  0  0  0  0  0
    2.7689    0.4390   -0.1381 N   0  0  0  1  0  0  0  0  0  0  0  0
    3.5582    1.0967   -1.0310 C   0  0  0  1  0  0  0  0  0  0  0  0
    3.6868    0.7703   -2.0101 H   0  0  0  1  0  0  0  0  0  0  0  0
    4.1414    2.1678   -0.5659 N   0  0  0  1  0  0  0  0  0  0  0  0
    3.6973    2.2359    0.7455 C   0  0  0  1  0  0  0  0  0  0  0  0
    3.9298    3.1081    1.8048 C   0  0  0  1  0  0  0  0  0  0  0  0
    4.7507    4.2300    1.7657 N   0  0  0  1  0  0  0  0  0  0  0  0
    5.2467    4.4460    0.9486 H   0  0  0  1  0  0  0  0  0  0  0  0
    4.8331    4.8045    2.5553 H   0  0  0  1  0  0  0  0  0  0  0  0
    3.3362    2.8926    2.9836 N   0  0  0  1  0  0  0  0  0  0  0  0
    2.5394    1.8185    3.1001 C   0  0  0  1  0  0  0  0  0  0  0  0
    2.1000    1.6835    4.0330 H   0  0  0  1  0  0  0  0  0  0  0  0
    2.2367    0.9055    2.1854 N   0  0  0  1  0  0  0  0  0  0  0  0
    2.8393    1.1634    1.0238 C   0  0  0  1  0  0  0  0  0  0  0  0
  1  2  1  0  0  0  0
  1  3  1  0  0  0  0
  1  4  1  0  0  0  0
  1  5  1  0  0  0  0
  5  6  1  0  0  0  0
  5  7  1  0  0  0  0
  5 10  1  0  0  0  0
  7  8  1  0  0  0  0
  7  9  2  0  0  0  0
 10 11  1  0  0  0  0
 10 12  1  0  0  0  0
 10 13  1  0  0  0  0
 13 14  1  0  0  0  0
 13 15  1  0  0  0  0
 13 16  1  0  0  0  0
 16 17  1  0  0  0  0
 16 21  1  0  0  0  0
 17 18  1  0  0  0  0
 17 19  1  0  0  0  0
 17 20  1  0  0  0  0
 21 22  1  0  0  0  0
 21 23  1  0  0  0  0
 21 24  1  0  0  0  0
 24 25  1  0  0  0  0
 24 26  1  0  0  0  0
 24 27  1  0  0  0  0
 26 35  1  0  0  0  0
 27 28  1  0  0  0  0
 27 29  1  0  0  0  0
 27 31  1  0  0  0  0
 29 30  1  0  0  0  0
 31 32  1  0  0  0  0
 31 33  1  0  0  0  0
 31 35  1  0  0  0  0
 33 34  1  0  0  0  0
 35 36  1  0  0  0  0
 35 37  1  0  0  0  0
 37 38  1  0  0  0  0
 37 50  1  0  0  0  0
 38 39  1  0  0  0  0
 38 40  2  0  0  0  0
 40 41  1  0  0  0  0
 41 42  1  0  0  0  0
 41 50  2  0  0  0  0
 42 43  1  0  0  0  0
 42 46  2  0  0  0  0
 43 44  1  0  0  0  0
 43 45  1  0  0  0  0
 46 47  1  0  0  0  0
 47 48  1  0  0  0  0
 47 49  2  0  0  0  0
 49 50  1  0  0  0  0
M  END
> <ConfClashScore>
0 

> <ConfOneFourInteractionScore>
-0.980927 

> <ConfScore>
0.00419793 

> <ConfScorePBest>
0.0106695 

> <ConfTolerance>
1.30367 

$$$$
SAM.****
  PyMOL2.4          3D                             0

 50 52  0  0  0  0  0  0  0  0999 V2000
   -6.1934   -1.9951   -2.3669 N   0  3  0  1  0  0  0  0  0  0  0  0
   -5.4024   -2.6557   -2.1657 H   0  0  0  1  0  0  0  0  0  0  0  0
   -6.7939   -2.3913   -3.1318 H   0  0  0  1  0  0  0  0  0  0  0  0
   -6.7706   -1.8660   -1.4994 H   0  0  0  1  0  0  0  0  0  0  0  0
   -5.6446   -0.6789   -2.7983 C   0  0  0  1  0  0  0  0  0  0  0  0
   -5.9007    0.0550   -2.0630 H   0  0  0  1  0  0  0  0  0  0  0  0
   -6.2460   -0.2662   -4.0975 C   0  0  0  1  0  0  0  0  0  0  0  0
   -6.1392    1.0747   -4.2978 O   0  5  0  1  0  0  0  0  0  0  0  0
   -6.7722   -1.0278   -4.8922 O   0  0  0  1  0  0  0  0  0  0  0  0
   -4.1326   -0.7724   -2.8699 C   0  0  0  1  0  0  0  0  0  0  0  0
   -3.7415    0.2034   -3.0692 H   0  0  0  1  0  0  0  0  0  0  0  0
   -3.8710   -1.4325   -3.6704 H   0  0  0  1  0  0  0  0  0  0  0  0
   -3.5001   -1.2927   -1.5903 C   0  0  0  1  0  0  0  0  0  0  0  0
   -3.7613   -2.3226   -1.4645 H   0  0  0  1  0  0  0  0  0  0  0  0
   -3.8705   -0.7264   -0.7615 H   0  0  0  1  0  0  0  0  0  0  0  0
   -1.7206   -1.1443   -1.6510 S   0  3  0  1  0  0  0  0  0  0  0  0
   -1.2907   -2.4956   -2.7570 C   0  0  0  1  0  0  0  0  0  0  0  0
   -2.1736   -2.8526   -3.2449 H   0  0  0  1  0  0  0  0  0  0  0  0
   -0.8487   -3.2906   -2.1935 H   0  0  0  1  0  0  0  0  0  0  0  0
   -0.5940   -2.1477   -3.4908 H   0  0  0  1  0  0  0  0  0  0  0  0
   -1.2501   -1.8482   -0.1691 C   0  0  0  1  0  0  0  0  0  0  0  0
   -1.7751   -2.7644    0.0036 H   0  0  0  1  0  0  0  0  0  0  0  0
   -1.4246   -1.1774    0.6461 H   0  0  0  1  0  0  0  0  0  0  0  0
    0.2290   -2.0990   -0.3564 C   0  0  0  1  0  0  0  0  0  0  0  0
    0.3710   -2.8717   -1.0828 H   0  0  0  1  0  0  0  0  0  0  0  0
    0.9071   -0.8803   -0.7662 O   0  0  0  1  0  0  0  0  0  0  0  0
    0.8824   -2.4815    0.9709 C   0  0  0  1  0  0  0  0  0  0  0  0
    0.3964   -2.0054    1.7968 H   0  0  0  1  0  0  0  0  0  0  0  0
    0.8771   -3.8965    1.1658 O   0  0  0  1  0  0  0  0  0  0  0  0
    0.0984   -4.2742    0.7506 H   0  0  0  1  0  0  0  0  0  0  0  0
    2.2826   -1.9579    0.7805 C   0  0  0  1  0  0  0  0  0  0  0  0
    2.7632   -1.7868    1.7210 H   0  0  0  1  0  0  0  0  0  0  0  0
    3.0695   -2.8586   -0.0002 O   0  0  0  1  0  0  0  0  0  0  0  0
    3.8271   -2.3922   -0.3609 H   0  0  0  1  0  0  0  0  0  0  0  0
    2.0438   -0.6542    0.0406 C   0  0  0  1  0  0  0  0  0  0  0  0
    2.8900   -0.4086   -0.5664 H   0  0  0  1  0  0  0  0  0  0  0  0
    1.7905    0.4311    0.9869 N   0  0  0  1  0  0  0  0  0  0  0  0
    0.8913    0.4300    2.0088 C   0  0  0  1  0  0  0  0  0  0  0  0
    0.1632   -0.3053    2.1121 H   0  0  0  1  0  0  0  0  0  0  0  0
    1.0117    1.4215    2.8493 N   0  0  0  1  0  0  0  0  0  0  0  0
    2.0875    2.1402    2.3515 C   0  0  0  1  0  0  0  0  0  0  0  0
    2.7423    3.3037    2.7444 C   0  0  0  1  0  0  0  0  0  0  0  0
    2.4299    3.9867    3.9084 N   0  0  0  1  0  0  0  0  0  0  0  0
    1.7249    3.6500    4.4999 H   0  0  0  1  0  0  0  0  0  0  0  0
    2.9140    4.8067    4.1403 H   0  0  0  1  0  0  0  0  0  0  0  0
    3.7773    3.7561    2.0283 N   0  0  0  1  0  0  0  0  0  0  0  0
    4.1368    3.0644    0.9354 C   0  0  0  1  0  0  0  0  0  0  0  0
    4.9428    3.4506    0.4037 H   0  0  0  1  0  0  0  0  0  0  0  0
    3.6024    1.9541    0.4418 N   0  0  0  1  0  0  0  0  0  0  0  0
    2.5827    1.5314    1.1905 C   0  0  0  1  0  0  0  0  0  0  0  0
  1  2  1  0  0  0  0
  1  3  1  0  0  0  0
  1  4  1  0  0  0  0
  1  5  1  0  0  0  0
  5  6  1  0  0  0  0
  5  7  1  0  0  0  0
  5 10  1  0  0  0  0
  7  8  1  0  0  0  0
  7  9  2  0  0  0  0
 10 11  1  0  0  0  0
 10 12  1  0  0  0  0
 10 13  1  0  0  0  0
 13 14  1  0  0  0  0
 13 15  1  0  0  0  0
 13 16  1  0  0  0  0
 16 17  1  0  0  0  0
 16 21  1  0  0  0  0
 17 18  1  0  0  0  0
 17 19  1  0  0  0  0
 17 20  1  0  0  0  0
 21 22  1  0  0  0  0
 21 23  1  0  0  0  0
 21 24  1  0  0  0  0
 24 25  1  0  0  0  0
 24 26  1  0  0  0  0
 24 27  1  0  0  0  0
 26 35  1  0  0  0  0
 27 28  1  0  0  0  0
 27 29  1  0  0  0  0
 27 31  1  0  0  0  0
 29 30  1  0  0  0  0
 31 32  1  0  0  0  0
 31 33  1  0  0  0  0
 31 35  1  0  0  0  0
 33 34  1  0  0  0  0
 35 36  1  0  0  0  0
 35 37  1  0  0  0  0
 37 38  1  0  0  0  0
 37 50  1  0  0  0  0
 38 39  1  0  0  0  0
 38 40  2  0  0  0  0
 40 41  1  0  0  0  0
 41 42  1  0  0  0  0
 41 50  2  0  0  0  0
 42 43  1  0  0  0  0
 42 46  2  0  0  0  0
 43 44  1  0  0  0  0
 43 45  1  0  0  0  0
 46 47  1  0  0  0  0
 47 48  1  0  0  0  0
 47 49  2  0  0  0  0
 49 50  1  0  0  0  0
M  END
> <ConfClashScore>
0 

> <ConfOneFourInteractionScore>
-0.986101 

> <ConfScore>
0.0044551 

> <ConfScorePBest>
0.0105665 

> <ConfTolerance>
1.19285 

$$$$
SAM.****
  PyMOL2.4          3D                             0

 50 52  0  0  0  0  0  0  0  0999 V2000
    0.2813    1.5004    5.5023 N   0  3  0  1  0  0  0  0  0  0  0  0
    0.4846    1.4473    6.5311 H   0  0  0  1  0  0  0  0  0  0  0  0
   -0.6793    1.8981    5.3556 H   0  0  0  1  0  0  0  0  0  0  0  0
    0.9913    2.1184    5.0370 H   0  0  0  1  0  0  0  0  0  0  0  0
    0.3487    0.1347    4.9110 C   0  0  0  1  0  0  0  0  0  0  0  0
   -0.5009   -0.4368    5.2217 H   0  0  0  1  0  0  0  0  0  0  0  0
    1.5864   -0.4875    5.4598 C   0  0  0  1  0  0  0  0  0  0  0  0
    1.5491   -1.8383    5.6133 O   0  5  0  1  0  0  0  0  0  0  0  0
    2.5646    0.1816    5.7493 O   0  0  0  1  0  0  0  0  0  0  0  0
    0.3803    0.2084    3.3966 C   0  0  0  1  0  0  0  0  0  0  0  0
    0.6085   -0.7645    3.0142 H   0  0  0  1  0  0  0  0  0  0  0  0
    1.1478    0.8952    3.1063 H   0  0  0  1  0  0  0  0  0  0  0  0
   -0.9000    0.6573    2.8040 C   0  0  0  1  0  0  0  0  0  0  0  0
   -1.0864    1.6576    3.1350 H   0  0  0  1  0  0  0  0  0  0  0  0
   -1.6754    0.0125    3.1614 H   0  0  0  1  0  0  0  0  0  0  0  0
   -0.9489    0.6462    1.0180 S   0  3  0  1  0  0  0  0  0  0  0  0
   -2.6319    1.2162    0.7058 C   0  0  0  1  0  0  0  0  0  0  0  0
   -2.6201    1.9607   -0.0627 H   0  0  0  1  0  0  0  0  0  0  0  0
   -3.0382    1.6359    1.6023 H   0  0  0  1  0  0  0  0  0  0  0  0
   -3.2357    0.3902    0.3925 H   0  0  0  1  0  0  0  0  0  0  0  0
   -1.1691   -1.1055    0.6547 C   0  0  0  1  0  0  0  0  0  0  0  0
   -2.0854   -1.2066    0.1114 H   0  0  0  1  0  0  0  0  0  0  0  0
   -1.2502   -1.6183    1.5903 H   0  0  0  1  0  0  0  0  0  0  0  0
   -0.0896   -1.7963   -0.1472 C   0  0  0  1  0  0  0  0  0  0  0  0
   -0.5401   -2.3978   -0.9089 H   0  0  0  1  0  0  0  0  0  0  0  0
    0.7923   -0.8130   -0.7459 O   0  0  0  1  0  0  0  0  0  0  0  0
    0.7723   -2.6697    0.7726 C   0  0  0  1  0  0  0  0  0  0  0  0
    0.2545   -2.8982    1.6807 H   0  0  0  1  0  0  0  0  0  0  0  0
    1.1497   -3.8833    0.1208 O   0  0  0  1  0  0  0  0  0  0  0  0
    2.1070   -3.9363    0.0715 H   0  0  0  1  0  0  0  0  0  0  0  0
    1.9974   -1.7872    1.0448 C   0  0  0  1  0  0  0  0  0  0  0  0
    1.8458   -1.1669    1.9033 H   0  0  0  1  0  0  0  0  0  0  0  0
    3.1742   -2.5768    1.2286 O   0  0  0  1  0  0  0  0  0  0  0  0
    3.4530   -2.9379    0.3839 H   0  0  0  1  0  0  0  0  0  0  0  0
    2.0841   -0.9465   -0.2439 C   0  0  0  1  0  0  0  0  0  0  0  0
    2.7051   -1.4411   -0.9613 H   0  0  0  1  0  0  0  0  0  0  0  0
    2.6413    0.3726    0.0574 N   0  0  0  1  0  0  0  0  0  0  0  0
    1.9701    1.5557    0.1062 C   0  0  0  1  0  0  0  0  0  0  0  0
    0.9474    1.6261   -0.0692 H   0  0  0  1  0  0  0  0  0  0  0  0
    2.7067    2.5954    0.3897 N   0  0  0  1  0  0  0  0  0  0  0  0
    3.9749    2.0600    0.5525 C   0  0  0  1  0  0  0  0  0  0  0  0
    5.2238    2.5967    0.8511 C   0  0  0  1  0  0  0  0  0  0  0  0
    5.4318    3.9429    1.0689 N   0  0  0  1  0  0  0  0  0  0  0  0
    4.6848    4.5726    0.9936 H   0  0  0  1  0  0  0  0  0  0  0  0
    6.3267    4.2695    1.2989 H   0  0  0  1  0  0  0  0  0  0  0  0
    6.2882    1.7915    0.9368 N   0  0  0  1  0  0  0  0  0  0  0  0
    6.1053    0.4805    0.7135 C   0  0  0  1  0  0  0  0  0  0  0  0
    6.9576   -0.1111    0.7854 H   0  0  0  1  0  0  0  0  0  0  0  0
    4.9836   -0.1626    0.4134 N   0  0  0  1  0  0  0  0  0  0  0  0
    3.9466    0.6738    0.3490 C   0  0  0  1  0  0  0  0  0  0  0  0
  1  2  1  0  0  0  0
  1  3  1  0  0  0  0
  1  4  1  0  0  0  0
  1  5  1  0  0  0  0
  5  6  1  0  0  0  0
  5  7  1  0  0  0  0
  5 10  1  0  0  0  0
  7  8  1  0  0  0  0
  7  9  2  0  0  0  0
 10 11  1  0  0  0  0
 10 12  1  0  0  0  0
 10 13  1  0  0  0  0
 13 14  1  0  0  0  0
 13 15  1  0  0  0  0
 13 16  1  0  0  0  0
 16 17  1  0  0  0  0
 16 21  1  0  0  0  0
 17 18  1  0  0  0  0
 17 19  1  0  0  0  0
 17 20  1  0  0  0  0
 21 22  1  0  0  0  0
 21 23  1  0  0  0  0
 21 24  1  0  0  0  0
 24 25  1  0  0  0  0
 24 26  1  0  0  0  0
 24 27  1  0  0  0  0
 26 35  1  0  0  0  0
 27 28  1  0  0  0  0
 27 29  1  0  0  0  0
 27 31  1  0  0  0  0
 29 30  1  0  0  0  0
 31 32  1  0  0  0  0
 31 33  1  0  0  0  0
 31 35  1  0  0  0  0
 33 34  1  0  0  0  0
 35 36  1  0  0  0  0
 35 37  1  0  0  0  0
 37 38  1  0  0  0  0
 37 50  1  0  0  0  0
 38 39  1  0  0  0  0
 38 40  2  0  0  0  0
 40 41  1  0  0  0  0
 41 42  1  0  0  0  0
 41 50  2  0  0  0  0
 42 43  1  0  0  0  0
 42 46  2  0  0  0  0
 43 44  1  0  0  0  0
 43 45  1  0  0  0  0
 46 47  1  0  0  0  0
 47 48  1  0  0  0  0
 47 49  2  0  0  0  0
 49 50  1  0  0  0  0
M  END
> <ConfClashScore>
0 

> <ConfOneFourInteractionScore>
-0.985506 

> <ConfScore>
0.00531287 

> <ConfScorePBest>
0.0104635 

> <ConfTolerance>
1.22321 

$$$$
SAM.****
  PyMOL2.4          3D                             0

 50 52  0  0  0  0  0  0  0  0999 V2000
   -3.7503   -3.1031   -3.2019 N   0  3  0  1  0  0  0  0  0  0  0  0
   -4.2988   -3.9981   -3.1807 H   0  0  0  1  0  0  0  0  0  0  0  0
   -3.6607   -2.7711   -4.1940 H   0  0  0  1  0  0  0  0  0  0  0  0
   -4.2475   -2.3746   -2.6321 H   0  0  0  1  0  0  0  0  0  0  0  0
   -2.3932   -3.3377   -2.6325 C   0  0  0  1  0  0  0  0  0  0  0  0
   -1.8978   -4.1039   -3.1914 H   0  0  0  1  0  0  0  0  0  0  0  0
   -2.4949   -3.7634   -1.2082 C   0  0  0  1  0  0  0  0  0  0  0  0
   -1.3331   -4.3130   -0.7634 O   0  5  0  1  0  0  0  0  0  0  0  0
   -3.4918   -3.6396   -0.5160 O   0  0  0  1  0  0  0  0  0  0  0  0
   -1.5995   -2.0506   -2.7480 C   0  0  0  1  0  0  0  0  0  0  0  0
   -1.6790   -1.6920   -3.7530 H   0  0  0  1  0  0  0  0  0  0  0  0
   -0.5748   -2.2626   -2.5244 H   0  0  0  1  0  0  0  0  0  0  0  0
   -2.0758   -0.9728   -1.8193 C   0  0  0  1  0  0  0  0  0  0  0  0
   -3.0274   -0.7668   -2.2631 H   0  0  0  1  0  0  0  0  0  0  0  0
   -1.3849   -0.1985   -2.0803 H   0  0  0  1  0  0  0  0  0  0  0  0
   -2.4281   -0.4954   -0.1372 S   0  3  0  1  0  0  0  0  0  0  0  0
   -1.8337    1.1885   -0.1158 C   0  0  0  1  0  0  0  0  0  0  0  0
   -2.4468    1.7918   -0.7521 H   0  0  0  1  0  0  0  0  0  0  0  0
   -0.8229    1.2141   -0.4660 H   0  0  0  1  0  0  0  0  0  0  0  0
   -1.8751    1.5684    0.8837 H   0  0  0  1  0  0  0  0  0  0  0  0
   -1.1175   -1.3519    0.7662 C   0  0  0  1  0  0  0  0  0  0  0  0
   -1.5583   -2.1733    1.2914 H   0  0  0  1  0  0  0  0  0  0  0  0
   -0.6946   -0.6645    1.4687 H   0  0  0  1  0  0  0  0  0  0  0  0
    0.0014   -1.8914   -0.0933 C   0  0  0  1  0  0  0  0  0  0  0  0
   -0.4035   -2.5436   -0.8387 H   0  0  0  1  0  0  0  0  0  0  0  0
    0.7179   -0.8094   -0.7145 O   0  0  0  1  0  0  0  0  0  0  0  0
    1.0304   -2.6500    0.7807 C   0  0  0  1  0  0  0  0  0  0  0  0
    0.6045   -2.9307    1.7213 H   0  0  0  1  0  0  0  0  0  0  0  0
    1.5154   -3.8143    0.1105 O   0  0  0  1  0  0  0  0  0  0  0  0
    0.7730   -4.3434   -0.1904 H   0  0  0  1  0  0  0  0  0  0  0  0
    2.1356   -1.6250    0.9651 C   0  0  0  1  0  0  0  0  0  0  0  0
    1.9469   -1.0023    1.8145 H   0  0  0  1  0  0  0  0  0  0  0  0
    3.4072   -2.2588    1.1115 O   0  0  0  1  0  0  0  0  0  0  0  0
    3.3014   -3.2101    1.0383 H   0  0  0  1  0  0  0  0  0  0  0  0
    2.0655   -0.8176   -0.3408 C   0  0  0  1  0  0  0  0  0  0  0  0
    2.6591   -1.2842   -1.0991 H   0  0  0  1  0  0  0  0  0  0  0  0
    2.5407    0.5487   -0.1204 N   0  0  0  1  0  0  0  0  0  0  0  0
    2.2026    1.3806    0.9025 C   0  0  0  1  0  0  0  0  0  0  0  0
    1.5477    1.0985    1.6595 H   0  0  0  1  0  0  0  0  0  0  0  0
    2.7624    2.5591    0.8618 N   0  0  0  1  0  0  0  0  0  0  0  0
    3.5471    2.5065   -0.2797 C   0  0  0  1  0  0  0  0  0  0  0  0
    4.3926    3.4088   -0.9185 C   0  0  0  1  0  0  0  0  0  0  0  0
    4.6219    4.6765   -0.4526 N   0  0  0  1  0  0  0  0  0  0  0  0
    4.1538    4.9971    0.3465 H   0  0  0  1  0  0  0  0  0  0  0  0
    5.2539    5.2629   -0.9185 H   0  0  0  1  0  0  0  0  0  0  0  0
    5.0227    3.0463   -2.0410 N   0  0  0  1  0  0  0  0  0  0  0  0
    4.7977    1.8120   -2.5186 C   0  0  0  1  0  0  0  0  0  0  0  0
    5.3027    1.5699   -3.3950 H   0  0  0  1  0  0  0  0  0  0  0  0
    4.0178    0.8590   -2.0234 N   0  0  0  1  0  0  0  0  0  0  0  0
    3.4182    1.2567   -0.9004 C   0  0  0  1  0  0  0  0  0  0  0  0
  1  2  1  0  0  0  0
  1  3  1  0  0  0  0
  1  4  1  0  0  0  0
  1  5  1  0  0  0  0
  5  6  1  0  0  0  0
  5  7  1  0  0  0  0
  5 10  1  0  0  0  0
  7  8  1  0  0  0  0
  7  9  2  0  0  0  0
 10 11  1  0  0  0  0
 10 12  1  0  0  0  0
 10 13  1  0  0  0  0
 13 14  1  0  0  0  0
 13 15  1  0  0  0  0
 13 16  1  0  0  0  0
 16 17  1  0  0  0  0
 16 21  1  0  0  0  0
 17 18  1  0  0  0  0
 17 19  1  0  0  0  0
 17 20  1  0  0  0  0
 21 22  1  0  0  0  0
 21 23  1  0  0  0  0
 21 24  1  0  0  0  0
 24 25  1  0  0  0  0
 24 26  1  0  0  0  0
 24 27  1  0  0  0  0
 26 35  1  0  0  0  0
 27 28  1  0  0  0  0
 27 29  1  0  0  0  0
 27 31  1  0  0  0  0
 29 30  1  0  0  0  0
 31 32  1  0  0  0  0
 31 33  1  0  0  0  0
 31 35  1  0  0  0  0
 33 34  1  0  0  0  0
 35 36  1  0  0  0  0
 35 37  1  0  0  0  0
 37 38  1  0  0  0  0
 37 50  1  0  0  0  0
 38 39  1  0  0  0  0
 38 40  2  0  0  0  0
 40 41  1  0  0  0  0
 41 42  1  0  0  0  0
 41 50  2  0  0  0  0
 42 43  1  0  0  0  0
 42 46  2  0  0  0  0
 43 44  1  0  0  0  0
 43 45  1  0  0  0  0
 46 47  1  0  0  0  0
 47 48  1  0  0  0  0
 47 49  2  0  0  0  0
 49 50  1  0  0  0  0
M  END
> <ConfClashScore>
0 

> <ConfOneFourInteractionScore>
-0.96848 

> <ConfScore>
0.00552909 

> <ConfScorePBest>
0.0103605 

> <ConfTolerance>
1.26168 

$$$$
SAM.****
  PyMOL2.4          3D                             0

 50 52  0  0  0  0  0  0  0  0999 V2000
   -2.1257   -7.2809    1.4914 N   0  3  0  1  0  0  0  0  0  0  0  0
   -1.3337   -6.9874    2.1152 H   0  0  0  1  0  0  0  0  0  0  0  0
   -1.9866   -8.2787    1.1955 H   0  0  0  1  0  0  0  0  0  0  0  0
   -3.0327   -7.1932    2.0131 H   0  0  0  1  0  0  0  0  0  0  0  0
   -2.1602   -6.3985    0.2758 C   0  0  0  1  0  0  0  0  0  0  0  0
   -2.9439   -6.7651   -0.3537 H   0  0  0  1  0  0  0  0  0  0  0  0
   -0.8951   -6.5223   -0.5016 C   0  0  0  1  0  0  0  0  0  0  0  0
   -0.8074   -5.7866   -1.6421 O   0  5  0  1  0  0  0  0  0  0  0  0
   -0.0217   -7.2632   -0.0812 O   0  0  0  1  0  0  0  0  0  0  0  0
   -2.5295   -4.9722    0.6495 C   0  0  0  1  0  0  0  0  0  0  0  0
   -1.7369   -4.5598    1.2383 H   0  0  0  1  0  0  0  0  0  0  0  0
   -3.4294   -4.9952    1.2278 H   0  0  0  1  0  0  0  0  0  0  0  0
   -2.7507   -4.0835   -0.5402 C   0  0  0  1  0  0  0  0  0  0  0  0
   -3.6084   -4.4544   -1.0614 H   0  0  0  1  0  0  0  0  0  0  0  0
   -1.8877   -4.1677   -1.1672 H   0  0  0  1  0  0  0  0  0  0  0  0
   -3.0225   -2.3403   -0.2352 S   0  3  0  1  0  0  0  0  0  0  0  0
   -3.4251   -1.6573   -1.8421 C   0  0  0  1  0  0  0  0  0  0  0  0
   -3.6728   -2.4509   -2.5156 H   0  0  0  1  0  0  0  0  0  0  0  0
   -2.5824   -1.1178   -2.2213 H   0  0  0  1  0  0  0  0  0  0  0  0
   -4.2605   -0.9952   -1.7487 H   0  0  0  1  0  0  0  0  0  0  0  0
   -1.4117   -1.7432   -0.0727 C   0  0  0  1  0  0  0  0  0  0  0  0
   -1.3844   -1.5985    0.9871 H   0  0  0  1  0  0  0  0  0  0  0  0
   -1.5254   -0.7972   -0.5595 H   0  0  0  1  0  0  0  0  0  0  0  0
    0.0582   -1.9781   -0.3284 C   0  0  0  1  0  0  0  0  0  0  0  0
    0.1741   -2.7162   -1.0944 H   0  0  0  1  0  0  0  0  0  0  0  0
    0.6966   -0.7835   -0.6893 O   0  0  0  1  0  0  0  0  0  0  0  0
    0.7715   -2.4144    0.9596 C   0  0  0  1  0  0  0  0  0  0  0  0
    0.3444   -1.9381    1.8173 H   0  0  0  1  0  0  0  0  0  0  0  0
    0.7155   -3.8321    1.1242 O   0  0  0  1  0  0  0  0  0  0  0  0
    1.4035   -4.2435    0.5959 H   0  0  0  1  0  0  0  0  0  0  0  0
    2.1855   -1.9500    0.7283 C   0  0  0  1  0  0  0  0  0  0  0  0
    2.6815   -1.7537    1.6558 H   0  0  0  1  0  0  0  0  0  0  0  0
    2.9279   -2.9186   -0.0138 O   0  0  0  1  0  0  0  0  0  0  0  0
    3.8184   -2.9794    0.3396 H   0  0  0  1  0  0  0  0  0  0  0  0
    2.0015   -0.6619   -0.0797 C   0  0  0  1  0  0  0  0  0  0  0  0
    2.7600   -0.5774   -0.8296 H   0  0  0  1  0  0  0  0  0  0  0  0
    2.0510    0.5061    0.7983 N   0  0  0  1  0  0  0  0  0  0  0  0
    0.9827    1.2899    1.1098 C   0  0  0  1  0  0  0  0  0  0  0  0
    0.0276    1.1054    0.7418 H   0  0  0  1  0  0  0  0  0  0  0  0
    1.2471    2.2904    1.9053 N   0  0  0  1  0  0  0  0  0  0  0  0
    2.6047    2.1584    2.1527 C   0  0  0  1  0  0  0  0  0  0  0  0
    3.5296    2.8814    2.9002 C   0  0  0  1  0  0  0  0  0  0  0  0
    3.2541    4.0210    3.6482 N   0  0  0  1  0  0  0  0  0  0  0  0
    3.9798    4.4928    4.1077 H   0  0  0  1  0  0  0  0  0  0  0  0
    2.3342    4.3522    3.7157 H   0  0  0  1  0  0  0  0  0  0  0  0
    4.8071    2.4873    2.9351 N   0  0  0  1  0  0  0  0  0  0  0  0
    5.1504    1.4014    2.2244 C   0  0  0  1  0  0  0  0  0  0  0  0
    6.1531    1.1298    2.2741 H   0  0  0  1  0  0  0  0  0  0  0  0
    4.3830    0.6275    1.4668 N   0  0  0  1  0  0  0  0  0  0  0  0
    3.1172    1.0480    1.4686 C   0  0  0  1  0  0  0  0  0  0  0  0
  1  2  1  0  0  0  0
  1  3  1  0  0  0  0
  1  4  1  0  0  0  0
  1  5  1  0  0  0  0
  5  6  1  0  0  0  0
  5  7  1  0  0  0  0
  5 10  1  0  0  0  0
  7  8  1  0  0  0  0
  7  9  2  0  0  0  0
 10 11  1  0  0  0  0
 10 12  1  0  0  0  0
 10 13  1  0  0  0  0
 13 14  1  0  0  0  0
 13 15  1  0  0  0  0
 13 16  1  0  0  0  0
 16 17  1  0  0  0  0
 16 21  1  0  0  0  0
 17 18  1  0  0  0  0
 17 19  1  0  0  0  0
 17 20  1  0  0  0  0
 21 22  1  0  0  0  0
 21 23  1  0  0  0  0
 21 24  1  0  0  0  0
 24 25  1  0  0  0  0
 24 26  1  0  0  0  0
 24 27  1  0  0  0  0
 26 35  1  0  0  0  0
 27 28  1  0  0  0  0
 27 29  1  0  0  0  0
 27 31  1  0  0  0  0
 29 30  1  0  0  0  0
 31 32  1  0  0  0  0
 31 33  1  0  0  0  0
 31 35  1  0  0  0  0
 33 34  1  0  0  0  0
 35 36  1  0  0  0  0
 35 37  1  0  0  0  0
 37 38  1  0  0  0  0
 37 50  1  0  0  0  0
 38 39  1  0  0  0  0
 38 40  2  0  0  0  0
 40 41  1  0  0  0  0
 41 42  1  0  0  0  0
 41 50  2  0  0  0  0
 42 43  1  0  0  0  0
 42 46  2  0  0  0  0
 43 44  1  0  0  0  0
 43 45  1  0  0  0  0
 46 47  1  0  0  0  0
 47 48  1  0  0  0  0
 47 49  2  0  0  0  0
 49 50  1  0  0  0  0
M  END
> <ConfClashScore>
0 

> <ConfOneFourInteractionScore>
-0.98093 

> <ConfScore>
0.00638897 

> <ConfScorePBest>
0.0102575 

> <ConfTolerance>
1.17006 

$$$$
SAM.****
  PyMOL2.4          3D                             0

 50 52  0  0  0  0  0  0  0  0999 V2000
   -4.6938    3.0102   -2.1960 N   0  3  0  1  0  0  0  0  0  0  0  0
   -5.6266    3.1781   -1.7442 H   0  0  0  1  0  0  0  0  0  0  0  0
   -4.8005    3.0398   -3.2401 H   0  0  0  1  0  0  0  0  0  0  0  0
   -4.0186    3.7544   -1.8915 H   0  0  0  1  0  0  0  0  0  0  0  0
   -4.1767    1.6740   -1.7877 C   0  0  0  1  0  0  0  0  0  0  0  0
   -3.2360    1.4907   -2.2635 H   0  0  0  1  0  0  0  0  0  0  0  0
   -5.1566    0.6400   -2.2248 C   0  0  0  1  0  0  0  0  0  0  0  0
   -4.6474   -0.6158   -2.1100 O   0  5  0  1  0  0  0  0  0  0  0  0
   -6.2800    0.8781   -2.6367 O   0  0  0  1  0  0  0  0  0  0  0  0
   -3.9861    1.6411   -0.2697 C   0  0  0  1  0  0  0  0  0  0  0  0
   -4.9442    1.5806    0.2030 H   0  0  0  1  0  0  0  0  0  0  0  0
   -3.4904    2.5369    0.0412 H   0  0  0  1  0  0  0  0  0  0  0  0
   -3.1612    0.4558    0.1371 C   0  0  0  1  0  0  0  0  0  0  0  0
   -2.3325    0.5824   -0.5279 H   0  0  0  1  0  0  0  0  0  0  0  0
   -3.7922   -0.3292   -0.2239 H   0  0  0  1  0  0  0  0  0  0  0  0
   -2.3330   -0.4232    1.4777 S   0  3  0  1  0  0  0  0  0  0  0  0
   -1.1949    0.8341    2.0762 C   0  0  0  1  0  0  0  0  0  0  0  0
   -0.6914    1.2842    1.2463 H   0  0  0  1  0  0  0  0  0  0  0  0
   -0.4756    0.3829    2.7273 H   0  0  0  1  0  0  0  0  0  0  0  0
   -1.7405    1.5832    2.6110 H   0  0  0  1  0  0  0  0  0  0  0  0
   -1.3434   -1.5578    0.6345 C   0  0  0  1  0  0  0  0  0  0  0  0
   -2.0514   -1.9041   -0.0893 H   0  0  0  1  0  0  0  0  0  0  0  0
   -1.2280   -2.2943    1.4020 H   0  0  0  1  0  0  0  0  0  0  0  0
   -0.0538   -1.8011   -0.1412 C   0  0  0  1  0  0  0  0  0  0  0  0
   -0.2797   -2.2920   -1.0648 H   0  0  0  1  0  0  0  0  0  0  0  0
    0.6080   -0.5511   -0.3984 O   0  0  0  1  0  0  0  0  0  0  0  0
    0.9078   -2.6682    0.6946 C   0  0  0  1  0  0  0  0  0  0  0  0
    0.4889   -2.8817    1.6557 H   0  0  0  1  0  0  0  0  0  0  0  0
    1.2033   -3.8937    0.0197 O   0  0  0  1  0  0  0  0  0  0  0  0
    0.7987   -4.6252    0.4918 H   0  0  0  1  0  0  0  0  0  0  0  0
    2.1821   -1.7928    0.8307 C   0  0  0  1  0  0  0  0  0  0  0  0
    2.1983   -1.2734    1.7661 H   0  0  0  1  0  0  0  0  0  0  0  0
    3.3675   -2.5790    0.7013 O   0  0  0  1  0  0  0  0  0  0  0  0
    3.9347   -2.4311    1.4615 H   0  0  0  1  0  0  0  0  0  0  0  0
    2.0272   -0.8086   -0.3568 C   0  0  0  1  0  0  0  0  0  0  0  0
    2.3616   -1.2554   -1.2698 H   0  0  0  1  0  0  0  0  0  0  0  0
    2.7767    0.4273   -0.1138 N   0  0  0  1  0  0  0  0  0  0  0  0
    2.5838    1.3790    0.8401 C   0  0  0  1  0  0  0  0  0  0  0  0
    1.8280    1.3125    1.5514 H   0  0  0  1  0  0  0  0  0  0  0  0
    3.4188    2.3812    0.7948 N   0  0  0  1  0  0  0  0  0  0  0  0
    4.2443    2.0680   -0.2739 C   0  0  0  1  0  0  0  0  0  0  0  0
    5.3291    2.6960   -0.8787 C   0  0  0  1  0  0  0  0  0  0  0  0
    5.7868    3.8866   -0.4143 N   0  0  0  1  0  0  0  0  0  0  0  0
    6.6080    4.2736   -0.7835 H   0  0  0  1  0  0  0  0  0  0  0  0
    5.2961    4.3591    0.2902 H   0  0  0  1  0  0  0  0  0  0  0  0
    5.9273    2.1215   -1.9279 N   0  0  0  1  0  0  0  0  0  0  0  0
    5.4384    0.9514   -2.3682 C   0  0  0  1  0  0  0  0  0  0  0  0
    5.9281    0.5393   -3.1880 H   0  0  0  1  0  0  0  0  0  0  0  0
    4.4144    0.2494   -1.8987 N   0  0  0  1  0  0  0  0  0  0  0  0
    3.8544    0.8506   -0.8481 C   0  0  0  1  0  0  0  0  0  0  0  0
  1  2  1  0  0  0  0
  1  3  1  0  0  0  0
  1  4  1  0  0  0  0
  1  5  1  0  0  0  0
  5  6  1  0  0  0  0
  5  7  1  0  0  0  0
  5 10  1  0  0  0  0
  7  8  1  0  0  0  0
  7  9  2  0  0  0  0
 10 11  1  0  0  0  0
 10 12  1  0  0  0  0
 10 13  1  0  0  0  0
 13 14  1  0  0  0  0
 13 15  1  0  0  0  0
 13 16  1  0  0  0  0
 16 17  1  0  0  0  0
 16 21  1  0  0  0  0
 17 18  1  0  0  0  0
 17 19  1  0  0  0  0
 17 20  1  0  0  0  0
 21 22  1  0  0  0  0
 21 23  1  0  0  0  0
 21 24  1  0  0  0  0
 24 25  1  0  0  0  0
 24 26  1  0  0  0  0
 24 27  1  0  0  0  0
 26 35  1  0  0  0  0
 27 28  1  0  0  0  0
 27 29  1  0  0  0  0
 27 31  1  0  0  0  0
 29 30  1  0  0  0  0
 31 32  1  0  0  0  0
 31 33  1  0  0  0  0
 31 35  1  0  0  0  0
 33 34  1  0  0  0  0
 35 36  1  0  0  0  0
 35 37  1  0  0  0  0
 37 38  1  0  0  0  0
 37 50  1  0  0  0  0
 38 39  1  0  0  0  0
 38 40  2  0  0  0  0
 40 41  1  0  0  0  0
 41 42  1  0  0  0  0
 41 50  2  0  0  0  0
 42 43  1  0  0  0  0
 42 46  2  0  0  0  0
 43 44  1  0  0  0  0
 43 45  1  0  0  0  0
 46 47  1  0  0  0  0
 47 48  1  0  0  0  0
 47 49  2  0  0  0  0
 49 50  1  0  0  0  0
M  END
> <ConfClashScore>
0 

> <ConfOneFourInteractionScore>
-0.988075 

> <ConfScore>
0.00965077 

> <ConfScorePBest>
0.0101545 

> <ConfTolerance>
1.18997 

$$$$
SAM.****
  PyMOL2.4          3D                             0

 50 52  0  0  0  0  0  0  0  0999 V2000
   -5.5402   -5.7450   -2.4549 N   0  3  0  1  0  0  0  0  0  0  0  0
   -5.8554   -6.0841   -3.3973 H   0  0  0  1  0  0  0  0  0  0  0  0
   -6.2993   -5.1643   -2.0202 H   0  0  0  1  0  0  0  0  0  0  0  0
   -5.3326   -6.5690   -1.8382 H   0  0  0  1  0  0  0  0  0  0  0  0
   -4.3008   -4.9122   -2.6108 C   0  0  0  1  0  0  0  0  0  0  0  0
   -4.5503   -4.0560   -3.2021 H   0  0  0  1  0  0  0  0  0  0  0  0
   -3.2051   -5.6452   -3.3053 C   0  0  0  1  0  0  0  0  0  0  0  0
   -2.0629   -4.9339   -3.5029 O   0  5  0  1  0  0  0  0  0  0  0  0
   -3.2978   -6.8021   -3.6814 O   0  0  0  1  0  0  0  0  0  0  0  0
   -3.8985   -4.4199   -1.2291 C   0  0  0  1  0  0  0  0  0  0  0  0
   -3.5515   -5.2561   -0.6587 H   0  0  0  1  0  0  0  0  0  0  0  0
   -4.7599   -3.9972   -0.7555 H   0  0  0  1  0  0  0  0  0  0  0  0
   -2.7602   -3.3296   -1.2610 C   0  0  0  1  0  0  0  0  0  0  0  0
   -3.0620   -2.4773   -1.8331 H   0  0  0  1  0  0  0  0  0  0  0  0
   -1.8562   -3.7315   -1.6686 H   0  0  0  1  0  0  0  0  0  0  0  0
   -2.5503   -2.9017    0.4638 S   0  3  0  1  0  0  0  0  0  0  0  0
   -4.1283   -2.1198    0.7822 C   0  0  0  1  0  0  0  0  0  0  0  0
   -4.5414   -1.7614   -0.1375 H   0  0  0  1  0  0  0  0  0  0  0  0
   -3.9901   -1.2990    1.4546 H   0  0  0  1  0  0  0  0  0  0  0  0
   -4.7968   -2.8315    1.2198 H   0  0  0  1  0  0  0  0  0  0  0  0
   -1.3788   -1.5366    0.4509 C   0  0  0  1  0  0  0  0  0  0  0  0
   -1.2363   -1.2118    1.4604 H   0  0  0  1  0  0  0  0  0  0  0  0
   -1.8033   -0.7402   -0.1240 H   0  0  0  1  0  0  0  0  0  0  0  0
   -0.0223   -1.8652   -0.1324 C   0  0  0  1  0  0  0  0  0  0  0  0
   -0.1462   -2.4714   -1.0053 H   0  0  0  1  0  0  0  0  0  0  0  0
    0.6735   -0.6536   -0.4705 O   0  0  0  1  0  0  0  0  0  0  0  0
    0.8324   -2.6117    0.9103 C   0  0  0  1  0  0  0  0  0  0  0  0
    0.3061   -2.7039    1.8374 H   0  0  0  1  0  0  0  0  0  0  0  0
    1.1926   -3.9098    0.4355 O   0  0  0  1  0  0  0  0  0  0  0  0
    1.6431   -3.8287   -0.4083 H   0  0  0  1  0  0  0  0  0  0  0  0
    2.0896   -1.7172    1.0767 C   0  0  0  1  0  0  0  0  0  0  0  0
    2.0041   -1.0826    1.9339 H   0  0  0  1  0  0  0  0  0  0  0  0
    3.2761   -2.5051    1.1832 O   0  0  0  1  0  0  0  0  0  0  0  0
    3.3190   -3.1209    0.4480 H   0  0  0  1  0  0  0  0  0  0  0  0
    2.0771   -0.8936   -0.2366 C   0  0  0  1  0  0  0  0  0  0  0  0
    2.5090   -1.4509   -1.0414 H   0  0  0  1  0  0  0  0  0  0  0  0
    2.8028    0.3672   -0.0703 N   0  0  0  1  0  0  0  0  0  0  0  0
    2.3344    1.5880    0.3077 C   0  0  0  1  0  0  0  0  0  0  0  0
    1.3348    1.7558    0.5406 H   0  0  0  1  0  0  0  0  0  0  0  0
    3.2343    2.5323    0.3559 N   0  0  0  1  0  0  0  0  0  0  0  0
    4.4036    1.8855   -0.0126 C   0  0  0  1  0  0  0  0  0  0  0  0
    5.7251    2.2894   -0.1786 C   0  0  0  1  0  0  0  0  0  0  0  0
    6.1633    3.5700    0.1163 N   0  0  0  1  0  0  0  0  0  0  0  0
    7.1111    3.7985    0.0174 H   0  0  0  1  0  0  0  0  0  0  0  0
    5.5255    4.2475    0.4239 H   0  0  0  1  0  0  0  0  0  0  0  0
    6.6479    1.3989   -0.5579 N   0  0  0  1  0  0  0  0  0  0  0  0
    6.2503    0.1360   -0.7794 C   0  0  0  1  0  0  0  0  0  0  0  0
    6.9964   -0.5248   -1.0767 H   0  0  0  1  0  0  0  0  0  0  0  0
    5.0336   -0.3833   -0.6702 N   0  0  0  1  0  0  0  0  0  0  0  0
    4.1475    0.5339   -0.2797 C   0  0  0  1  0  0  0  0  0  0  0  0
  1  2  1  0  0  0  0
  1  3  1  0  0  0  0
  1  4  1  0  0  0  0
  1  5  1  0  0  0  0
  5  6  1  0  0  0  0
  5  7  1  0  0  0  0
  5 10  1  0  0  0  0
  7  8  1  0  0  0  0
  7  9  2  0  0  0  0
 10 11  1  0  0  0  0
 10 12  1  0  0  0  0
 10 13  1  0  0  0  0
 13 14  1  0  0  0  0
 13 15  1  0  0  0  0
 13 16  1  0  0  0  0
 16 17  1  0  0  0  0
 16 21  1  0  0  0  0
 17 18  1  0  0  0  0
 17 19  1  0  0  0  0
 17 20  1  0  0  0  0
 21 22  1  0  0  0  0
 21 23  1  0  0  0  0
 21 24  1  0  0  0  0
 24 25  1  0  0  0  0
 24 26  1  0  0  0  0
 24 27  1  0  0  0  0
 26 35  1  0  0  0  0
 27 28  1  0  0  0  0
 27 29  1  0  0  0  0
 27 31  1  0  0  0  0
 29 30  1  0  0  0  0
 31 32  1  0  0  0  0
 31 33  1  0  0  0  0
 31 35  1  0  0  0  0
 33 34  1  0  0  0  0
 35 36  1  0  0  0  0
 35 37  1  0  0  0  0
 37 38  1  0  0  0  0
 37 50  1  0  0  0  0
 38 39  1  0  0  0  0
 38 40  2  0  0  0  0
 40 41  1  0  0  0  0
 41 42  1  0  0  0  0
 41 50  2  0  0  0  0
 42 43  1  0  0  0  0
 42 46  2  0  0  0  0
 43 44  1  0  0  0  0
 43 45  1  0  0  0  0
 46 47  1  0  0  0  0
 47 48  1  0  0  0  0
 47 49  2  0  0  0  0
 49 50  1  0  0  0  0
M  END
> <ConfClashScore>
0 

> <ConfOneFourInteractionScore>
-0.98093 

> <ConfScore>
0.012613 

> <ConfScorePBest>
0.0100515 

> <ConfTolerance>
1.25006 

$$$$
SAM.****
  PyMOL2.4          3D                             0

 50 52  0  0  0  0  0  0  0  0999 V2000
   -7.4035   -3.3643    2.1310 N   0  3  0  1  0  0  0  0  0  0  0  0
   -7.7827   -2.3890    2.2182 H   0  0  0  1  0  0  0  0  0  0  0  0
   -7.3220   -3.7944    3.0854 H   0  0  0  1  0  0  0  0  0  0  0  0
   -8.0533   -3.9407    1.5411 H   0  0  0  1  0  0  0  0  0  0  0  0
   -6.0593   -3.3198    1.4903 C   0  0  0  1  0  0  0  0  0  0  0  0
   -6.1398   -2.9052    0.5072 H   0  0  0  1  0  0  0  0  0  0  0  0
   -5.6071   -4.7361    1.3911 C   0  0  0  1  0  0  0  0  0  0  0  0
   -6.1175   -5.6032    2.3060 O   0  5  0  1  0  0  0  0  0  0  0  0
   -4.8177   -5.0365    0.5107 O   0  0  0  1  0  0  0  0  0  0  0  0
   -5.0989   -2.4778    2.3162 C   0  0  0  1  0  0  0  0  0  0  0  0
   -4.9182   -2.9804    3.2433 H   0  0  0  1  0  0  0  0  0  0  0  0
   -5.5571   -1.5299    2.5072 H   0  0  0  1  0  0  0  0  0  0  0  0
   -3.7815   -2.2414    1.6385 C   0  0  0  1  0  0  0  0  0  0  0  0
   -3.1948   -1.9618    2.4884 H   0  0  0  1  0  0  0  0  0  0  0  0
   -4.0296   -1.3678    1.0727 H   0  0  0  1  0  0  0  0  0  0  0  0
   -2.4849   -2.9105    0.5931 S   0  3  0  1  0  0  0  0  0  0  0  0
   -1.6075   -4.0658    1.6420 C   0  0  0  1  0  0  0  0  0  0  0  0
   -2.2439   -4.8951    1.8703 H   0  0  0  1  0  0  0  0  0  0  0  0
   -1.3204   -3.5764    2.5491 H   0  0  0  1  0  0  0  0  0  0  0  0
   -0.7339   -4.4164    1.1333 H   0  0  0  1  0  0  0  0  0  0  0  0
   -1.3694   -1.5030    0.4963 C   0  0  0  1  0  0  0  0  0  0  0  0
   -1.1677   -1.1700    1.4929 H   0  0  0  1  0  0  0  0  0  0  0  0
   -1.8633   -0.7247   -0.0472 H   0  0  0  1  0  0  0  0  0  0  0  0
   -0.0485   -1.7821   -0.1810 C   0  0  0  1  0  0  0  0  0  0  0  0
   -0.2234   -2.2653   -1.1195 H   0  0  0  1  0  0  0  0  0  0  0  0
    0.6671   -0.5525   -0.3875 O   0  0  0  1  0  0  0  0  0  0  0  0
    0.8252   -2.6784    0.7180 C   0  0  0  1  0  0  0  0  0  0  0  0
    0.3334   -2.8798    1.6467 H   0  0  0  1  0  0  0  0  0  0  0  0
    1.1301   -3.9105    0.0629 O   0  0  0  1  0  0  0  0  0  0  0  0
    0.9984   -4.6393    0.6737 H   0  0  0  1  0  0  0  0  0  0  0  0
    2.1125   -1.8421    0.9461 C   0  0  0  1  0  0  0  0  0  0  0  0
    2.0784   -1.3240    1.8817 H   0  0  0  1  0  0  0  0  0  0  0  0
    3.2798   -2.6638    0.8983 O   0  0  0  1  0  0  0  0  0  0  0  0
    4.0289   -2.1396    0.6055 H   0  0  0  1  0  0  0  0  0  0  0  0
    2.0715   -0.8529   -0.2467 C   0  0  0  1  0  0  0  0  0  0  0  0
    2.4558   -1.3090   -1.1351 H   0  0  0  1  0  0  0  0  0  0  0  0
    2.8381    0.3584    0.0517 N   0  0  0  1  0  0  0  0  0  0  0  0
    3.9754    0.7829   -0.5642 C   0  0  0  1  0  0  0  0  0  0  0  0
    4.4170    0.2583   -1.3461 H   0  0  0  1  0  0  0  0  0  0  0  0
    4.4700    1.8979   -0.0994 N   0  0  0  1  0  0  0  0  0  0  0  0
    3.5834    2.2522    0.9056 C   0  0  0  1  0  0  0  0  0  0  0  0
    3.5109    3.3101    1.8070 C   0  0  0  1  0  0  0  0  0  0  0  0
    4.4171    4.3610    1.8981 N   0  0  0  1  0  0  0  0  0  0  0  0
    5.1743    4.4102    1.2780 H   0  0  0  1  0  0  0  0  0  0  0  0
    4.2985    5.0523    2.5825 H   0  0  0  1  0  0  0  0  0  0  0  0
    2.5014    3.3672    2.6824 N   0  0  0  1  0  0  0  0  0  0  0  0
    1.5944    2.3777    2.6627 C   0  0  0  1  0  0  0  0  0  0  0  0
    0.8279    2.4562    3.3611 H   0  0  0  1  0  0  0  0  0  0  0  0
    1.5439    1.3127    1.8721 N   0  0  0  1  0  0  0  0  0  0  0  0
    2.5603    1.3002    1.0085 C   0  0  0  1  0  0  0  0  0  0  0  0
  1  2  1  0  0  0  0
  1  3  1  0  0  0  0
  1  4  1  0  0  0  0
  1  5  1  0  0  0  0
  5  6  1  0  0  0  0
  5  7  1  0  0  0  0
  5 10  1  0  0  0  0
  7  8  1  0  0  0  0
  7  9  2  0  0  0  0
 10 11  1  0  0  0  0
 10 12  1  0  0  0  0
 10 13  1  0  0  0  0
 13 14  1  0  0  0  0
 13 15  1  0  0  0  0
 13 16  1  0  0  0  0
 16 17  1  0  0  0  0
 16 21  1  0  0  0  0
 17 18  1  0  0  0  0
 17 19  1  0  0  0  0
 17 20  1  0  0  0  0
 21 22  1  0  0  0  0
 21 23  1  0  0  0  0
 21 24  1  0  0  0  0
 24 25  1  0  0  0  0
 24 26  1  0  0  0  0
 24 27  1  0  0  0  0
 26 35  1  0  0  0  0
 27 28  1  0  0  0  0
 27 29  1  0  0  0  0
 27 31  1  0  0  0  0
 29 30  1  0  0  0  0
 31 32  1  0  0  0  0
 31 33  1  0  0  0  0
 31 35  1  0  0  0  0
 33 34  1  0  0  0  0
 35 36  1  0  0  0  0
 35 37  1  0  0  0  0
 37 38  1  0  0  0  0
 37 50  1  0  0  0  0
 38 39  1  0  0  0  0
 38 40  2  0  0  0  0
 40 41  1  0  0  0  0
 41 42  1  0  0  0  0
 41 50  2  0  0  0  0
 42 43  1  0  0  0  0
 42 46  2  0  0  0  0
 43 44  1  0  0  0  0
 43 45  1  0  0  0  0
 46 47  1  0  0  0  0
 47 48  1  0  0  0  0
 47 49  2  0  0  0  0
 49 50  1  0  0  0  0
M  END
> <ConfClashScore>
0 

> <ConfOneFourInteractionScore>
-0.988075 

> <ConfScore>
0.0143951 

> <ConfScorePBest>
0.0099485 

> <ConfTolerance>
1.28393 

$$$$
SAM.****
  PyMOL2.4          3D                             0

 50 52  0  0  0  0  0  0  0  0999 V2000
   -1.4077   -6.5761   -1.1922 N   0  3  0  1  0  0  0  0  0  0  0  0
   -1.1588   -7.2480   -0.4247 H   0  0  0  1  0  0  0  0  0  0  0  0
   -0.5390   -6.0909   -1.5277 H   0  0  0  1  0  0  0  0  0  0  0  0
   -1.8454   -7.1017   -1.9889 H   0  0  0  1  0  0  0  0  0  0  0  0
   -2.3722   -5.5654   -0.6750 C   0  0  0  1  0  0  0  0  0  0  0  0
   -1.9865   -5.1885    0.2492 H   0  0  0  1  0  0  0  0  0  0  0  0
   -3.6631   -6.2457   -0.3735 C   0  0  0  1  0  0  0  0  0  0  0  0
   -4.7784   -5.4675   -0.3840 O   0  5  0  1  0  0  0  0  0  0  0  0
   -3.6189   -7.4426   -0.1418 O   0  0  0  1  0  0  0  0  0  0  0  0
   -2.5034   -4.3964   -1.6194 C   0  0  0  1  0  0  0  0  0  0  0  0
   -2.9337   -4.7557   -2.5308 H   0  0  0  1  0  0  0  0  0  0  0  0
   -1.5217   -4.0173   -1.8130 H   0  0  0  1  0  0  0  0  0  0  0  0
   -3.3581   -3.2466   -1.1206 C   0  0  0  1  0  0  0  0  0  0  0  0
   -4.3581   -3.5997   -0.9786 H   0  0  0  1  0  0  0  0  0  0  0  0
   -3.3544   -2.4718   -1.8586 H   0  0  0  1  0  0  0  0  0  0  0  0
   -2.7671   -2.5703    0.4204 S   0  3  0  1  0  0  0  0  0  0  0  0
   -3.7987   -1.1224    0.5898 C   0  0  0  1  0  0  0  0  0  0  0  0
   -4.4568   -1.0524   -0.2510 H   0  0  0  1  0  0  0  0  0  0  0  0
   -3.1824   -0.2489    0.6338 H   0  0  0  1  0  0  0  0  0  0  0  0
   -4.3750   -1.1985    1.4881 H   0  0  0  1  0  0  0  0  0  0  0  0
   -1.2659   -1.8689   -0.0611 C   0  0  0  1  0  0  0  0  0  0  0  0
   -1.2125   -1.0668    0.6451 H   0  0  0  1  0  0  0  0  0  0  0  0
   -1.5511   -1.4840   -1.0179 H   0  0  0  1  0  0  0  0  0  0  0  0
    0.2106   -2.0795   -0.3088 C   0  0  0  1  0  0  0  0  0  0  0  0
    0.3454   -2.8842   -1.0010 H   0  0  0  1  0  0  0  0  0  0  0  0
    0.8238   -0.8620   -0.8135 O   0  0  0  1  0  0  0  0  0  0  0  0
    0.9403   -2.3693    1.0021 C   0  0  0  1  0  0  0  0  0  0  0  0
    0.4776   -1.8669    1.8258 H   0  0  0  1  0  0  0  0  0  0  0  0
    0.9954   -3.7714    1.2690 O   0  0  0  1  0  0  0  0  0  0  0  0
    0.9456   -4.2572    0.4424 H   0  0  0  1  0  0  0  0  0  0  0  0
    2.3099   -1.8098    0.7158 C   0  0  0  1  0  0  0  0  0  0  0  0
    2.8286   -1.5733    1.6213 H   0  0  0  1  0  0  0  0  0  0  0  0
    3.0909   -2.7240   -0.0565 O   0  0  0  1  0  0  0  0  0  0  0  0
    2.9487   -3.6175    0.2644 H   0  0  0  1  0  0  0  0  0  0  0  0
    1.9890   -0.5557   -0.0769 C   0  0  0  1  0  0  0  0  0  0  0  0
    2.7957   -0.3141   -0.7370 H   0  0  0  1  0  0  0  0  0  0  0  0
    1.7422    0.5698    0.8250 N   0  0  0  1  0  0  0  0  0  0  0  0
    0.5980    1.2412    1.1298 C   0  0  0  1  0  0  0  0  0  0  0  0
   -0.3227    0.9946    0.7138 H   0  0  0  1  0  0  0  0  0  0  0  0
    0.7435    2.2179    1.9834 N   0  0  0  1  0  0  0  0  0  0  0  0
    2.0972    2.1908    2.2803 C   0  0  0  1  0  0  0  0  0  0  0  0
    2.9264    2.9508    3.0999 C   0  0  0  1  0  0  0  0  0  0  0  0
    2.4720    3.9973    3.8583 N   0  0  0  1  0  0  0  0  0  0  0  0
    1.5178    4.2210    3.8631 H   0  0  0  1  0  0  0  0  0  0  0  0
    3.1010    4.5223    4.3960 H   0  0  0  1  0  0  0  0  0  0  0  0
    4.2315    2.6670    3.1686 N   0  0  0  1  0  0  0  0  0  0  0  0
    4.6955    1.6534    2.4207 C   0  0  0  1  0  0  0  0  0  0  0  0
    5.7156    1.4671    2.4987 H   0  0  0  1  0  0  0  0  0  0  0  0
    4.0279    0.8568    1.5950 N   0  0  0  1  0  0  0  0  0  0  0  0
    2.7308    1.1659    1.5647 C   0  0  0  1  0  0  0  0  0  0  0  0
  1  2  1  0  0  0  0
  1  3  1  0  0  0  0
  1  4  1  0  0  0  0
  1  5  1  0  0  0  0
  5  6  1  0  0  0  0
  5  7  1  0  0  0  0
  5 10  1  0  0  0  0
  7  8  1  0  0  0  0
  7  9  2  0  0  0  0
 10 11  1  0  0  0  0
 10 12  1  0  0  0  0
 10 13  1  0  0  0  0
 13 14  1  0  0  0  0
 13 15  1  0  0  0  0
 13 16  1  0  0  0  0
 16 17  1  0  0  0  0
 16 21  1  0  0  0  0
 17 18  1  0  0  0  0
 17 19  1  0  0  0  0
 17 20  1  0  0  0  0
 21 22  1  0  0  0  0
 21 23  1  0  0  0  0
 21 24  1  0  0  0  0
 24 25  1  0  0  0  0
 24 26  1  0  0  0  0
 24 27  1  0  0  0  0
 26 35  1  0  0  0  0
 27 28  1  0  0  0  0
 27 29  1  0  0  0  0
 27 31  1  0  0  0  0
 29 30  1  0  0  0  0
 31 32  1  0  0  0  0
 31 33  1  0  0  0  0
 31 35  1  0  0  0  0
 33 34  1  0  0  0  0
 35 36  1  0  0  0  0
 35 37  1  0  0  0  0
 37 38  1  0  0  0  0
 37 50  1  0  0  0  0
 38 39  1  0  0  0  0
 38 40  2  0  0  0  0
 40 41  1  0  0  0  0
 41 42  1  0  0  0  0
 41 50  2  0  0  0  0
 42 43  1  0  0  0  0
 42 46  2  0  0  0  0
 43 44  1  0  0  0  0
 43 45  1  0  0  0  0
 46 47  1  0  0  0  0
 47 48  1  0  0  0  0
 47 49  2  0  0  0  0
 49 50  1  0  0  0  0
M  END
> <ConfClashScore>
0 

> <ConfOneFourInteractionScore>
-0.986105 

> <ConfScore>
0.0145297 

> <ConfScorePBest>
0.0098455 

> <ConfTolerance>
1.18437 

$$$$
SAM.****
  PyMOL2.4          3D                             0

 50 52  0  0  0  0  0  0  0  0999 V2000
   -3.9833    2.9532   -3.1345 N   0  3  0  1  0  0  0  0  0  0  0  0
   -3.3252    3.5036   -3.7399 H   0  0  0  1  0  0  0  0  0  0  0  0
   -4.7526    3.5811   -2.7933 H   0  0  0  1  0  0  0  0  0  0  0  0
   -4.3955    2.1651   -3.6925 H   0  0  0  1  0  0  0  0  0  0  0  0
   -3.2402    2.3995   -1.9674 C   0  0  0  1  0  0  0  0  0  0  0  0
   -3.9325    1.9759   -1.2701 H   0  0  0  1  0  0  0  0  0  0  0  0
   -2.4638    3.4752   -1.2891 C   0  0  0  1  0  0  0  0  0  0  0  0
   -2.0727    3.1026   -0.0410 O   0  5  0  1  0  0  0  0  0  0  0  0
   -2.2044    4.5606   -1.7821 O   0  0  0  1  0  0  0  0  0  0  0  0
   -2.3180    1.3142   -2.4649 C   0  0  0  1  0  0  0  0  0  0  0  0
   -1.6047    1.7641   -3.1234 H   0  0  0  1  0  0  0  0  0  0  0  0
   -2.9069    0.6044   -3.0075 H   0  0  0  1  0  0  0  0  0  0  0  0
   -1.5482    0.5579   -1.3830 C   0  0  0  1  0  0  0  0  0  0  0  0
   -1.1239    1.2623   -0.6983 H   0  0  0  1  0  0  0  0  0  0  0  0
   -0.7659   -0.0097   -1.8420 H   0  0  0  1  0  0  0  0  0  0  0  0
   -2.6288   -0.5528   -0.4861 S   0  3  0  1  0  0  0  0  0  0  0  0
   -3.4102    0.5483    0.6891 C   0  0  0  1  0  0  0  0  0  0  0  0
   -3.2836    1.5612    0.3683 H   0  0  0  1  0  0  0  0  0  0  0  0
   -2.9600    0.4202    1.6513 H   0  0  0  1  0  0  0  0  0  0  0  0
   -4.4542    0.3216    0.7502 H   0  0  0  1  0  0  0  0  0  0  0  0
   -1.4049   -1.3689    0.5553 C   0  0  0  1  0  0  0  0  0  0  0  0
   -1.8454   -2.2613    0.9482 H   0  0  0  1  0  0  0  0  0  0  0  0
   -1.1595   -0.7075    1.3598 H   0  0  0  1  0  0  0  0  0  0  0  0
   -0.1227   -1.7490   -0.1467 C   0  0  0  1  0  0  0  0  0  0  0  0
   -0.3525   -2.2558   -1.0606 H   0  0  0  1  0  0  0  0  0  0  0  0
    0.6552   -0.5714   -0.4202 O   0  0  0  1  0  0  0  0  0  0  0  0
    0.7249   -2.6604    0.7621 C   0  0  0  1  0  0  0  0  0  0  0  0
    0.2501   -2.7984    1.7110 H   0  0  0  1  0  0  0  0  0  0  0  0
    0.9398   -3.9316    0.1472 O   0  0  0  1  0  0  0  0  0  0  0  0
    1.8730   -4.1532    0.1870 H   0  0  0  1  0  0  0  0  0  0  0  0
    2.0638   -1.8921    0.9221 C   0  0  0  1  0  0  0  0  0  0  0  0
    2.0870   -1.3386    1.8375 H   0  0  0  1  0  0  0  0  0  0  0  0
    3.1807   -2.7812    0.8742 O   0  0  0  1  0  0  0  0  0  0  0  0
    3.9796   -2.3052    1.1121 H   0  0  0  1  0  0  0  0  0  0  0  0
    2.0438   -0.9471   -0.3065 C   0  0  0  1  0  0  0  0  0  0  0  0
    2.3750   -1.4575   -1.1867 H   0  0  0  1  0  0  0  0  0  0  0  0
    2.8854    0.2263   -0.0768 N   0  0  0  1  0  0  0  0  0  0  0  0
    4.0831    0.2641    0.5688 C   0  0  0  1  0  0  0  0  0  0  0  0
    4.5294   -0.5855    0.9694 H   0  0  0  1  0  0  0  0  0  0  0  0
    4.6294    1.4470    0.6471 N   0  0  0  1  0  0  0  0  0  0  0  0
    3.7243    2.2667   -0.0091 C   0  0  0  1  0  0  0  0  0  0  0  0
    3.6721    3.6299   -0.2843 C   0  0  0  1  0  0  0  0  0  0  0  0
    4.6746    4.4608    0.1236 N   0  0  0  1  0  0  0  0  0  0  0  0
    5.4250    4.1048    0.6437 H   0  0  0  1  0  0  0  0  0  0  0  0
    4.6442    5.4137   -0.1036 H   0  0  0  1  0  0  0  0  0  0  0  0
    2.6295    4.1315   -0.9551 N   0  0  0  1  0  0  0  0  0  0  0  0
    1.6554    3.2864   -1.3279 C   0  0  0  1  0  0  0  0  0  0  0  0
    0.8606    3.7155   -1.8433 H   0  0  0  1  0  0  0  0  0  0  0  0
    1.5697    1.9770   -1.1274 N   0  0  0  1  0  0  0  0  0  0  0  0
    2.6326    1.5163   -0.4664 C   0  0  0  1  0  0  0  0  0  0  0  0
  1  2  1  0  0  0  0
  1  3  1  0  0  0  0
  1  4  1  0  0  0  0
  1  5  1  0  0  0  0
  5  6  1  0  0  0  0
  5  7  1  0  0  0  0
  5 10  1  0  0  0  0
  7  8  1  0  0  0  0
  7  9  2  0  0  0  0
 10 11  1  0  0  0  0
 10 12  1  0  0  0  0
 10 13  1  0  0  0  0
 13 14  1  0  0  0  0
 13 15  1  0  0  0  0
 13 16  1  0  0  0  0
 16 17  1  0  0  0  0
 16 21  1  0  0  0  0
 17 18  1  0  0  0  0
 17 19  1  0  0  0  0
 17 20  1  0  0  0  0
 21 22  1  0  0  0  0
 21 23  1  0  0  0  0
 21 24  1  0  0  0  0
 24 25  1  0  0  0  0
 24 26  1  0  0  0  0
 24 27  1  0  0  0  0
 26 35  1  0  0  0  0
 27 28  1  0  0  0  0
 27 29  1  0  0  0  0
 27 31  1  0  0  0  0
 29 30  1  0  0  0  0
 31 32  1  0  0  0  0
 31 33  1  0  0  0  0
 31 35  1  0  0  0  0
 33 34  1  0  0  0  0
 35 36  1  0  0  0  0
 35 37  1  0  0  0  0
 37 38  1  0  0  0  0
 37 50  1  0  0  0  0
 38 39  1  0  0  0  0
 38 40  2  0  0  0  0
 40 41  1  0  0  0  0
 41 42  1  0  0  0  0
 41 50  2  0  0  0  0
 42 43  1  0  0  0  0
 42 46  2  0  0  0  0
 43 44  1  0  0  0  0
 43 45  1  0  0  0  0
 46 47  1  0  0  0  0
 47 48  1  0  0  0  0
 47 49  2  0  0  0  0
 49 50  1  0  0  0  0
M  END
> <ConfClashScore>
0 

> <ConfOneFourInteractionScore>
-0.981575 

> <ConfScore>
0.0148896 

> <ConfScorePBest>
0.0097425 

> <ConfTolerance>
1.29814 

$$$$
SAM.****
  PyMOL2.4          3D                             0

 50 52  0  0  0  0  0  0  0  0999 V2000
   -3.9315   -5.5954   -2.0730 N   0  3  0  1  0  0  0  0  0  0  0  0
   -3.9352   -6.1414   -2.9698 H   0  0  0  1  0  0  0  0  0  0  0  0
   -3.6111   -4.6136   -2.2626 H   0  0  0  1  0  0  0  0  0  0  0  0
   -4.9013   -5.5762   -1.6712 H   0  0  0  1  0  0  0  0  0  0  0  0
   -3.0020   -6.2428   -1.0989 C   0  0  0  1  0  0  0  0  0  0  0  0
   -2.0615   -6.4374   -1.5706 H   0  0  0  1  0  0  0  0  0  0  0  0
   -3.6405   -7.5352   -0.7220 C   0  0  0  1  0  0  0  0  0  0  0  0
   -2.8225   -8.6192   -0.6487 O   0  5  0  1  0  0  0  0  0  0  0  0
   -4.8406   -7.5516   -0.5035 O   0  0  0  1  0  0  0  0  0  0  0  0
   -2.7860   -5.3546    0.1013 C   0  0  0  1  0  0  0  0  0  0  0  0
   -2.2141   -5.9043    0.8194 H   0  0  0  1  0  0  0  0  0  0  0  0
   -3.7449   -5.1186    0.5134 H   0  0  0  1  0  0  0  0  0  0  0  0
   -2.0817   -4.0864   -0.1657 C   0  0  0  1  0  0  0  0  0  0  0  0
   -2.2685   -3.8107   -1.1826 H   0  0  0  1  0  0  0  0  0  0  0  0
   -1.0338   -4.2531   -0.0276 H   0  0  0  1  0  0  0  0  0  0  0  0
   -2.5802   -2.6855    0.9038 S   0  3  0  1  0  0  0  0  0  0  0  0
   -4.0921   -2.1928    0.0827 C   0  0  0  1  0  0  0  0  0  0  0  0
   -4.6672   -1.5709    0.7363 H   0  0  0  1  0  0  0  0  0  0  0  0
   -4.6596   -3.0636   -0.1716 H   0  0  0  1  0  0  0  0  0  0  0  0
   -3.8534   -1.6495   -0.8077 H   0  0  0  1  0  0  0  0  0  0  0  0
   -1.4156   -1.3745    0.5025 C   0  0  0  1  0  0  0  0  0  0  0  0
   -1.1762   -0.8691    1.4147 H   0  0  0  1  0  0  0  0  0  0  0  0
   -1.9122   -0.6977   -0.1611 H   0  0  0  1  0  0  0  0  0  0  0  0
   -0.1072   -1.7724   -0.1518 C   0  0  0  1  0  0  0  0  0  0  0  0
   -0.3083   -2.3017   -1.0597 H   0  0  0  1  0  0  0  0  0  0  0  0
    0.6790   -0.6014   -0.4299 O   0  0  0  1  0  0  0  0  0  0  0  0
    0.7115   -2.6606    0.8053 C   0  0  0  1  0  0  0  0  0  0  0  0
    0.2072   -2.7754    1.7420 H   0  0  0  1  0  0  0  0  0  0  0  0
    0.9430   -3.9335    0.2347 O   0  0  0  1  0  0  0  0  0  0  0  0
    1.8756   -4.0268    0.0269 H   0  0  0  1  0  0  0  0  0  0  0  0
    2.0448   -1.8877    0.9881 C   0  0  0  1  0  0  0  0  0  0  0  0
    2.0393   -1.3117    1.8898 H   0  0  0  1  0  0  0  0  0  0  0  0
    3.1630   -2.7774    0.9972 O   0  0  0  1  0  0  0  0  0  0  0  0
    3.9624   -2.2895    0.7861 H   0  0  0  1  0  0  0  0  0  0  0  0
    2.0633   -0.9733   -0.2635 C   0  0  0  1  0  0  0  0  0  0  0  0
    2.4219   -1.5050   -1.1201 H   0  0  0  1  0  0  0  0  0  0  0  0
    2.8980    0.2069   -0.0364 N   0  0  0  1  0  0  0  0  0  0  0  0
    3.9010    0.6686   -0.8324 C   0  0  0  1  0  0  0  0  0  0  0  0
    4.1698    0.2007   -1.7214 H   0  0  0  1  0  0  0  0  0  0  0  0
    4.5002    1.7430   -0.3957 N   0  0  0  1  0  0  0  0  0  0  0  0
    3.8354    2.0274    0.7870 C   0  0  0  1  0  0  0  0  0  0  0  0
    3.9630    3.0160    1.7582 C   0  0  0  1  0  0  0  0  0  0  0  0
    4.9055    4.0209    1.6900 N   0  0  0  1  0  0  0  0  0  0  0  0
    5.5043    4.0794    0.9165 H   0  0  0  1  0  0  0  0  0  0  0  0
    4.9762    4.6764    2.4151 H   0  0  0  1  0  0  0  0  0  0  0  0
    3.1461    3.0144    2.8172 N   0  0  0  1  0  0  0  0  0  0  0  0
    2.2325    2.0349    2.9059 C   0  0  0  1  0  0  0  0  0  0  0  0
    1.6195    2.0662    3.7454 H   0  0  0  1  0  0  0  0  0  0  0  0
    2.0058    1.0317    2.0667 N   0  0  0  1  0  0  0  0  0  0  0  0
    2.8328    1.0768    1.0212 C   0  0  0  1  0  0  0  0  0  0  0  0
  1  2  1  0  0  0  0
  1  3  1  0  0  0  0
  1  4  1  0  0  0  0
  1  5  1  0  0  0  0
  5  6  1  0  0  0  0
  5  7  1  0  0  0  0
  5 10  1  0  0  0  0
  7  8  1  0  0  0  0
  7  9  2  0  0  0  0
 10 11  1  0  0  0  0
 10 12  1  0  0  0  0
 10 13  1  0  0  0  0
 13 14  1  0  0  0  0
 13 15  1  0  0  0  0
 13 16  1  0  0  0  0
 16 17  1  0  0  0  0
 16 21  1  0  0  0  0
 17 18  1  0  0  0  0
 17 19  1  0  0  0  0
 17 20  1  0  0  0  0
 21 22  1  0  0  0  0
 21 23  1  0  0  0  0
 21 24  1  0  0  0  0
 24 25  1  0  0  0  0
 24 26  1  0  0  0  0
 24 27  1  0  0  0  0
 26 35  1  0  0  0  0
 27 28  1  0  0  0  0
 27 29  1  0  0  0  0
 27 31  1  0  0  0  0
 29 30  1  0  0  0  0
 31 32  1  0  0  0  0
 31 33  1  0  0  0  0
 31 35  1  0  0  0  0
 33 34  1  0  0  0  0
 35 36  1  0  0  0  0
 35 37  1  0  0  0  0
 37 38  1  0  0  0  0
 37 50  1  0  0  0  0
 38 39  1  0  0  0  0
 38 40  2  0  0  0  0
 40 41  1  0  0  0  0
 41 42  1  0  0  0  0
 41 50  2  0  0  0  0
 42 43  1  0  0  0  0
 42 46  2  0  0  0  0
 43 44  1  0  0  0  0
 43 45  1  0  0  0  0
 46 47  1  0  0  0  0
 47 48  1  0  0  0  0
 47 49  2  0  0  0  0
 49 50  1  0  0  0  0
M  END
> <ConfClashScore>
0 

> <ConfOneFourInteractionScore>
-0.978957 

> <ConfScore>
0.0154032 

> <ConfScorePBest>
0.0096395 

> <ConfTolerance>
1.41938 

$$$$
SAM.****
  PyMOL2.4          3D                             0

 50 52  0  0  0  0  0  0  0  0999 V2000
   -5.0338   -4.3669    1.3655 N   0  3  0  1  0  0  0  0  0  0  0  0
   -4.5144   -3.7309    2.0199 H   0  0  0  1  0  0  0  0  0  0  0  0
   -5.0100   -5.3480    1.7389 H   0  0  0  1  0  0  0  0  0  0  0  0
   -6.0305   -4.0469    1.2843 H   0  0  0  1  0  0  0  0  0  0  0  0
   -4.3900   -4.3314    0.0219 C   0  0  0  1  0  0  0  0  0  0  0  0
   -4.8498   -5.0543   -0.6192 H   0  0  0  1  0  0  0  0  0  0  0  0
   -2.9425   -4.6533    0.1670 C   0  0  0  1  0  0  0  0  0  0  0  0
   -2.3356   -4.7970   -1.0416 O   0  5  0  1  0  0  0  0  0  0  0  0
   -2.3617   -4.7754    1.2329 O   0  0  0  1  0  0  0  0  0  0  0  0
   -4.5202   -2.9557   -0.6029 C   0  0  0  1  0  0  0  0  0  0  0  0
   -5.5581   -2.7554   -0.7691 H   0  0  0  1  0  0  0  0  0  0  0  0
   -4.0024   -2.9580   -1.5393 H   0  0  0  1  0  0  0  0  0  0  0  0
   -3.9549   -1.8590    0.2506 C   0  0  0  1  0  0  0  0  0  0  0  0
   -4.4463   -2.0843    1.1740 H   0  0  0  1  0  0  0  0  0  0  0  0
   -4.4282   -1.0169   -0.2097 H   0  0  0  1  0  0  0  0  0  0  0  0
   -2.4858   -1.0578    0.8878 S   0  3  0  1  0  0  0  0  0  0  0  0
   -2.5983    0.5777    0.1543 C   0  0  0  1  0  0  0  0  0  0  0  0
   -1.9118    1.2366    0.6437 H   0  0  0  1  0  0  0  0  0  0  0  0
   -3.5943    0.9518    0.2685 H   0  0  0  1  0  0  0  0  0  0  0  0
   -2.3559    0.5191   -0.8862 H   0  0  0  1  0  0  0  0  0  0  0  0
   -1.3033   -1.8015   -0.1252 C   0  0  0  1  0  0  0  0  0  0  0  0
   -1.6112   -1.4088   -1.0717 H   0  0  0  1  0  0  0  0  0  0  0  0
   -1.6174   -2.8210   -0.0422 H   0  0  0  1  0  0  0  0  0  0  0  0
    0.1653   -2.0173   -0.4124 C   0  0  0  1  0  0  0  0  0  0  0  0
    0.2731   -2.7105   -1.2204 H   0  0  0  1  0  0  0  0  0  0  0  0
    0.8157   -0.7565   -0.7292 O   0  0  0  1  0  0  0  0  0  0  0  0
    0.8882   -2.5268    0.8338 C   0  0  0  1  0  0  0  0  0  0  0  0
    0.4434   -2.1423    1.7278 H   0  0  0  1  0  0  0  0  0  0  0  0
    0.8995   -3.9543    0.8827 O   0  0  0  1  0  0  0  0  0  0  0  0
    0.3562   -4.2541    1.6152 H   0  0  0  1  0  0  0  0  0  0  0  0
    2.2742   -1.9727    0.6269 C   0  0  0  1  0  0  0  0  0  0  0  0
    2.8020   -1.8938    1.5542 H   0  0  0  1  0  0  0  0  0  0  0  0
    3.0238   -2.7813   -0.2811 O   0  0  0  1  0  0  0  0  0  0  0  0
    3.9621   -2.6608   -0.1178 H   0  0  0  1  0  0  0  0  0  0  0  0
    1.9915   -0.6027    0.0375 C   0  0  0  1  0  0  0  0  0  0  0  0
    2.8040   -0.2881   -0.5835 H   0  0  0  1  0  0  0  0  0  0  0  0
    1.7823    0.3786    1.1025 N   0  0  0  1  0  0  0  0  0  0  0  0
    0.8351    0.2937    2.0764 C   0  0  0  1  0  0  0  0  0  0  0  0
    0.1251   -0.4658    2.1011 H   0  0  0  1  0  0  0  0  0  0  0  0
    0.8850    1.2374    2.9768 N   0  0  0  1  0  0  0  0  0  0  0  0
    1.9617    2.0127    2.5752 C   0  0  0  1  0  0  0  0  0  0  0  0
    2.5617    3.1686    3.0659 C   0  0  0  1  0  0  0  0  0  0  0  0
    2.1948    3.9037    4.1969 N   0  0  0  1  0  0  0  0  0  0  0  0
    1.4638    3.5900    4.7693 H   0  0  0  1  0  0  0  0  0  0  0  0
    2.6685    4.7328    4.4173 H   0  0  0  1  0  0  0  0  0  0  0  0
    3.6162    3.6897    2.4294 N   0  0  0  1  0  0  0  0  0  0  0  0
    4.0487    3.0728    1.3184 C   0  0  0  1  0  0  0  0  0  0  0  0
    4.8676    3.5109    0.8505 H   0  0  0  1  0  0  0  0  0  0  0  0
    3.5722    1.9791    0.7363 N   0  0  0  1  0  0  0  0  0  0  0  0
    2.5305    1.4862    1.4078 C   0  0  0  1  0  0  0  0  0  0  0  0
  1  2  1  0  0  0  0
  1  3  1  0  0  0  0
  1  4  1  0  0  0  0
  1  5  1  0  0  0  0
  5  6  1  0  0  0  0
  5  7  1  0  0  0  0
  5 10  1  0  0  0  0
  7  8  1  0  0  0  0
  7  9  2  0  0  0  0
 10 11  1  0  0  0  0
 10 12  1  0  0  0  0
 10 13  1  0  0  0  0
 13 14  1  0  0  0  0
 13 15  1  0  0  0  0
 13 16  1  0  0  0  0
 16 17  1  0  0  0  0
 16 21  1  0  0  0  0
 17 18  1  0  0  0  0
 17 19  1  0  0  0  0
 17 20  1  0  0  0  0
 21 22  1  0  0  0  0
 21 23  1  0  0  0  0
 21 24  1  0  0  0  0
 24 25  1  0  0  0  0
 24 26  1  0  0  0  0
 24 27  1  0  0  0  0
 26 35  1  0  0  0  0
 27 28  1  0  0  0  0
 27 29  1  0  0  0  0
 27 31  1  0  0  0  0
 29 30  1  0  0  0  0
 31 32  1  0  0  0  0
 31 33  1  0  0  0  0
 31 35  1  0  0  0  0
 33 34  1  0  0  0  0
 35 36  1  0  0  0  0
 35 37  1  0  0  0  0
 37 38  1  0  0  0  0
 37 50  1  0  0  0  0
 38 39  1  0  0  0  0
 38 40  2  0  0  0  0
 40 41  1  0  0  0  0
 41 42  1  0  0  0  0
 41 50  2  0  0  0  0
 42 43  1  0  0  0  0
 42 46  2  0  0  0  0
 43 44  1  0  0  0  0
 43 45  1  0  0  0  0
 46 47  1  0  0  0  0
 47 48  1  0  0  0  0
 47 49  2  0  0  0  0
 49 50  1  0  0  0  0
M  END
> <ConfClashScore>
0 

> <ConfOneFourInteractionScore>
-0.993249 

> <ConfScore>
0.0158724 

> <ConfScorePBest>
0.0095365 

> <ConfTolerance>
1.26572 

$$$$
SAM.****
  PyMOL2.4          3D                             0

 50 52  0  0  0  0  0  0  0  0999 V2000
   -3.5619   -1.9580    3.3183 N   0  3  0  1  0  0  0  0  0  0  0  0
   -4.1560   -2.5046    2.6468 H   0  0  0  1  0  0  0  0  0  0  0  0
   -4.0258   -1.9392    4.2601 H   0  0  0  1  0  0  0  0  0  0  0  0
   -2.6190   -2.4125    3.4010 H   0  0  0  1  0  0  0  0  0  0  0  0
   -3.3990   -0.5647    2.8176 C   0  0  0  1  0  0  0  0  0  0  0  0
   -2.4060   -0.4545    2.4344 H   0  0  0  1  0  0  0  0  0  0  0  0
   -3.5688    0.3954    3.9443 C   0  0  0  1  0  0  0  0  0  0  0  0
   -2.9606    1.6045    3.8103 O   0  5  0  1  0  0  0  0  0  0  0  0
   -4.2322    0.0521    4.9089 O   0  0  0  1  0  0  0  0  0  0  0  0
   -4.3795   -0.2817    1.6815 C   0  0  0  1  0  0  0  0  0  0  0  0
   -4.2605    0.7268    1.3444 H   0  0  0  1  0  0  0  0  0  0  0  0
   -5.3823   -0.4275    2.0250 H   0  0  0  1  0  0  0  0  0  0  0  0
   -4.0864   -1.2306    0.5554 C   0  0  0  1  0  0  0  0  0  0  0  0
   -4.9188   -1.1967   -0.1161 H   0  0  0  1  0  0  0  0  0  0  0  0
   -4.0065   -2.2111    0.9761 H   0  0  0  1  0  0  0  0  0  0  0  0
   -2.5973   -0.9387   -0.4173 S   0  3  0  1  0  0  0  0  0  0  0  0
   -2.8294   -2.0869   -1.7708 C   0  0  0  1  0  0  0  0  0  0  0  0
   -3.8354   -2.4512   -1.7616 H   0  0  0  1  0  0  0  0  0  0  0  0
   -2.1520   -2.9080   -1.6617 H   0  0  0  1  0  0  0  0  0  0  0  0
   -2.6394   -1.5879   -2.6980 H   0  0  0  1  0  0  0  0  0  0  0  0
   -1.3021   -1.6757    0.6059 C   0  0  0  1  0  0  0  0  0  0  0  0
   -1.6562   -2.6215    0.9593 H   0  0  0  1  0  0  0  0  0  0  0  0
   -1.1267   -1.0264    1.4380 H   0  0  0  1  0  0  0  0  0  0  0  0
    0.0150   -1.9016   -0.0982 C   0  0  0  1  0  0  0  0  0  0  0  0
   -0.1456   -2.4940   -0.9747 H   0  0  0  1  0  0  0  0  0  0  0  0
    0.6018   -0.6398   -0.4590 O   0  0  0  1  0  0  0  0  0  0  0  0
    1.0014   -2.6154    0.8464 C   0  0  0  1  0  0  0  0  0  0  0  0
    0.5639   -2.7631    1.8117 H   0  0  0  1  0  0  0  0  0  0  0  0
    1.3999   -3.8759    0.3056 O   0  0  0  1  0  0  0  0  0  0  0  0
    0.7495   -4.1689   -0.3368 H   0  0  0  1  0  0  0  0  0  0  0  0
    2.2098   -1.6453    0.9316 C   0  0  0  1  0  0  0  0  0  0  0  0
    2.1590   -1.0378    1.8110 H   0  0  0  1  0  0  0  0  0  0  0  0
    3.4482   -2.3569    0.9146 O   0  0  0  1  0  0  0  0  0  0  0  0
    3.3284   -3.2182    1.3215 H   0  0  0  1  0  0  0  0  0  0  0  0
    2.0326   -0.7938   -0.3516 C   0  0  0  1  0  0  0  0  0  0  0  0
    2.4275   -1.3029   -1.2058 H   0  0  0  1  0  0  0  0  0  0  0  0
    2.6886    0.5053   -0.2112 N   0  0  0  1  0  0  0  0  0  0  0  0
    2.7800    1.2651    0.9145 C   0  0  0  1  0  0  0  0  0  0  0  0
    2.3105    1.0040    1.8050 H   0  0  0  1  0  0  0  0  0  0  0  0
    3.5013    2.3461    0.7921 N   0  0  0  1  0  0  0  0  0  0  0  0
    3.9352    2.2996   -0.5236 C   0  0  0  1  0  0  0  0  0  0  0  0
    4.7225    3.1301   -1.3157 C   0  0  0  1  0  0  0  0  0  0  0  0
    5.2792    4.2941   -0.8552 N   0  0  0  1  0  0  0  0  0  0  0  0
    5.8574    4.8260   -1.4409 H   0  0  0  1  0  0  0  0  0  0  0  0
    5.0993    4.5947    0.0600 H   0  0  0  1  0  0  0  0  0  0  0  0
    4.9619    2.7995   -2.5893 N   0  0  0  1  0  0  0  0  0  0  0  0
    4.4119    1.6692   -3.0603 C   0  0  0  1  0  0  0  0  0  0  0  0
    4.6182    1.4494   -4.0556 H   0  0  0  1  0  0  0  0  0  0  0  0
    3.6402    0.7942   -2.4272 N   0  0  0  1  0  0  0  0  0  0  0  0
    3.4358    1.1550   -1.1595 C   0  0  0  1  0  0  0  0  0  0  0  0
  1  2  1  0  0  0  0
  1  3  1  0  0  0  0
  1  4  1  0  0  0  0
  1  5  1  0  0  0  0
  5  6  1  0  0  0  0
  5  7  1  0  0  0  0
  5 10  1  0  0  0  0
  7  8  1  0  0  0  0
  7  9  2  0  0  0  0
 10 11  1  0  0  0  0
 10 12  1  0  0  0  0
 10 13  1  0  0  0  0
 13 14  1  0  0  0  0
 13 15  1  0  0  0  0
 13 16  1  0  0  0  0
 16 17  1  0  0  0  0
 16 21  1  0  0  0  0
 17 18  1  0  0  0  0
 17 19  1  0  0  0  0
 17 20  1  0  0  0  0
 21 22  1  0  0  0  0
 21 23  1  0  0  0  0
 21 24  1  0  0  0  0
 24 25  1  0  0  0  0
 24 26  1  0  0  0  0
 24 27  1  0  0  0  0
 26 35  1  0  0  0  0
 27 28  1  0  0  0  0
 27 29  1  0  0  0  0
 27 31  1  0  0  0  0
 29 30  1  0  0  0  0
 31 32  1  0  0  0  0
 31 33  1  0  0  0  0
 31 35  1  0  0  0  0
 33 34  1  0  0  0  0
 35 36  1  0  0  0  0
 35 37  1  0  0  0  0
 37 38  1  0  0  0  0
 37 50  1  0  0  0  0
 38 39  1  0  0  0  0
 38 40  2  0  0  0  0
 40 41  1  0  0  0  0
 41 42  1  0  0  0  0
 41 50  2  0  0  0  0
 42 43  1  0  0  0  0
 42 46  2  0  0  0  0
 43 44  1  0  0  0  0
 43 45  1  0  0  0  0
 46 47  1  0  0  0  0
 47 48  1  0  0  0  0
 47 49  2  0  0  0  0
 49 50  1  0  0  0  0
M  END
> <ConfClashScore>
0 

> <ConfOneFourInteractionScore>
-0.984131 

> <ConfScore>
0.0163387 

> <ConfScorePBest>
0.00943349 

> <ConfTolerance>
1.15197 

$$$$
SAM.****
  PyMOL2.4          3D                             0

 50 52  0  0  0  0  0  0  0  0999 V2000
   -3.7073   -2.2145    5.6154 N   0  3  0  1  0  0  0  0  0  0  0  0
   -3.9066   -3.0905    5.0719 H   0  0  0  1  0  0  0  0  0  0  0  0
   -4.6096   -1.8069    5.9649 H   0  0  0  1  0  0  0  0  0  0  0  0
   -3.0865   -2.4425    6.4309 H   0  0  0  1  0  0  0  0  0  0  0  0
   -3.0251   -1.2265    4.7334 C   0  0  0  1  0  0  0  0  0  0  0  0
   -1.9799   -1.4545    4.7114 H   0  0  0  1  0  0  0  0  0  0  0  0
   -3.1876    0.1434    5.2965 C   0  0  0  1  0  0  0  0  0  0  0  0
   -2.2250    0.9908    4.8436 O   0  5  0  1  0  0  0  0  0  0  0  0
   -4.0711    0.4763    6.0692 O   0  0  0  1  0  0  0  0  0  0  0  0
   -3.5400   -1.3143    3.3604 C   0  0  0  1  0  0  0  0  0  0  0  0
   -4.5761   -1.0503    3.4010 H   0  0  0  1  0  0  0  0  0  0  0  0
   -3.4434   -2.3363    3.0584 H   0  0  0  1  0  0  0  0  0  0  0  0
   -3.0330   -0.6307    2.4706 C   0  0  0  1  0  0  0  0  0  0  0  0
   -3.1784    0.3979    2.7270 H   0  0  0  1  0  0  0  0  0  0  0  0
   -3.5490   -0.8479    1.5587 H   0  0  0  1  0  0  0  0  0  0  0  0
   -1.2843   -0.8783    2.1798 S   0  3  0  1  0  0  0  0  0  0  0  0
   -0.6892    0.7967    1.9560 C   0  0  0  1  0  0  0  0  0  0  0  0
   -1.4081    1.4863    2.3464 H   0  0  0  1  0  0  0  0  0  0  0  0
   -0.5428    0.9865    0.9132 H   0  0  0  1  0  0  0  0  0  0  0  0
    0.2389    0.9175    2.4747 H   0  0  0  1  0  0  0  0  0  0  0  0
   -1.3634   -1.5674    0.5164 C   0  0  0  1  0  0  0  0  0  0  0  0
   -1.8717   -0.8647   -0.1103 H   0  0  0  1  0  0  0  0  0  0  0  0
   -1.9242   -2.4776    0.5604 H   0  0  0  1  0  0  0  0  0  0  0  0
   -0.0205   -1.8730   -0.1131 C   0  0  0  1  0  0  0  0  0  0  0  0
   -0.1631   -2.4833   -0.9803 H   0  0  0  1  0  0  0  0  0  0  0  0
    0.6412   -0.6497   -0.4769 O   0  0  0  1  0  0  0  0  0  0  0  0
    0.8828   -2.6015    0.9009 C   0  0  0  1  0  0  0  0  0  0  0  0
    0.3904   -2.7012    1.8456 H   0  0  0  1  0  0  0  0  0  0  0  0
    1.2502   -3.8939    0.4161 O   0  0  0  1  0  0  0  0  0  0  0  0
    1.5946   -3.8153   -0.4765 H   0  0  0  1  0  0  0  0  0  0  0  0
    2.1285   -1.6839    1.0227 C   0  0  0  1  0  0  0  0  0  0  0  0
    2.0608   -1.0491    1.8813 H   0  0  0  1  0  0  0  0  0  0  0  0
    3.3321   -2.4499    1.0898 O   0  0  0  1  0  0  0  0  0  0  0  0
    3.1492   -3.3573    0.8351 H   0  0  0  1  0  0  0  0  0  0  0  0
    2.0560   -0.8636   -0.2907 C   0  0  0  1  0  0  0  0  0  0  0  0
    2.4702   -1.4148   -1.1090 H   0  0  0  1  0  0  0  0  0  0  0  0
    2.7692    0.4199   -0.1504 N   0  0  0  1  0  0  0  0  0  0  0  0
    2.1833    1.6016    0.1859 C   0  0  0  1  0  0  0  0  0  0  0  0
    1.1651    1.6857    0.3802 H   0  0  0  1  0  0  0  0  0  0  0  0
    2.9958    2.6215    0.2462 N   0  0  0  1  0  0  0  0  0  0  0  0
    4.2294    2.0728   -0.0678 C   0  0  0  1  0  0  0  0  0  0  0  0
    5.5162    2.5874   -0.1957 C   0  0  0  1  0  0  0  0  0  0  0  0
    5.8139    3.9047   -0.0007 N   0  0  0  1  0  0  0  0  0  0  0  0
    5.1121    4.5296    0.2775 H   0  0  0  1  0  0  0  0  0  0  0  0
    6.7294    4.2258   -0.1388 H   0  0  0  1  0  0  0  0  0  0  0  0
    6.5259    1.7743   -0.5242 N   0  0  0  1  0  0  0  0  0  0  0  0
    6.2474    0.4779   -0.7335 C   0  0  0  1  0  0  0  0  0  0  0  0
    7.0582   -0.1205   -0.9909 H   0  0  0  1  0  0  0  0  0  0  0  0
    5.0770   -0.1435   -0.6563 N   0  0  0  1  0  0  0  0  0  0  0  0
    4.1011    0.6995   -0.3159 C   0  0  0  1  0  0  0  0  0  0  0  0
  1  2  1  0  0  0  0
  1  3  1  0  0  0  0
  1  4  1  0  0  0  0
  1  5  1  0  0  0  0
  5  6  1  0  0  0  0
  5  7  1  0  0  0  0
  5 10  1  0  0  0  0
  7  8  1  0  0  0  0
  7  9  2  0  0  0  0
 10 11  1  0  0  0  0
 10 12  1  0  0  0  0
 10 13  1  0  0  0  0
 13 14  1  0  0  0  0
 13 15  1  0  0  0  0
 13 16  1  0  0  0  0
 16 17  1  0  0  0  0
 16 21  1  0  0  0  0
 17 18  1  0  0  0  0
 17 19  1  0  0  0  0
 17 20  1  0  0  0  0
 21 22  1  0  0  0  0
 21 23  1  0  0  0  0
 21 24  1  0  0  0  0
 24 25  1  0  0  0  0
 24 26  1  0  0  0  0
 24 27  1  0  0  0  0
 26 35  1  0  0  0  0
 27 28  1  0  0  0  0
 27 29  1  0  0  0  0
 27 31  1  0  0  0  0
 29 30  1  0  0  0  0
 31 32  1  0  0  0  0
 31 33  1  0  0  0  0
 31 35  1  0  0  0  0
 33 34  1  0  0  0  0
 35 36  1  0  0  0  0
 35 37  1  0  0  0  0
 37 38  1  0  0  0  0
 37 50  1  0  0  0  0
 38 39  1  0  0  0  0
 38 40  2  0  0  0  0
 40 41  1  0  0  0  0
 41 42  1  0  0  0  0
 41 50  2  0  0  0  0
 42 43  1  0  0  0  0
 42 46  2  0  0  0  0
 43 44  1  0  0  0  0
 43 45  1  0  0  0  0
 46 47  1  0  0  0  0
 47 48  1  0  0  0  0
 47 49  2  0  0  0  0
 49 50  1  0  0  0  0
M  END
> <ConfClashScore>
0 

> <ConfOneFourInteractionScore>
-0.993249 

> <ConfScore>
0.0166308 

> <ConfScorePBest>
0.00933049 

> <ConfTolerance>
1.12428 

$$$$
SAM.****
  PyMOL2.4          3D                             0

 50 52  0  0  0  0  0  0  0  0999 V2000
   -5.5774   -2.8708   -1.7682 N   0  3  0  1  0  0  0  0  0  0  0  0
   -5.6966   -3.7262   -2.3654 H   0  0  0  1  0  0  0  0  0  0  0  0
   -4.9120   -2.2072   -2.2366 H   0  0  0  1  0  0  0  0  0  0  0  0
   -6.5078   -2.4016   -1.6395 H   0  0  0  1  0  0  0  0  0  0  0  0
   -5.0320   -3.2645   -0.4389 C   0  0  0  1  0  0  0  0  0  0  0  0
   -4.0956   -3.7606   -0.5871 H   0  0  0  1  0  0  0  0  0  0  0  0
   -5.9586   -4.2115    0.2428 C   0  0  0  1  0  0  0  0  0  0  0  0
   -5.4105   -5.0298    1.1807 O   0  5  0  1  0  0  0  0  0  0  0  0
   -7.1375   -4.2023   -0.0709 O   0  0  0  1  0  0  0  0  0  0  0  0
   -4.7808   -2.0111    0.3858 C   0  0  0  1  0  0  0  0  0  0  0  0
   -4.3721   -2.3029    1.3307 H   0  0  0  1  0  0  0  0  0  0  0  0
   -5.7153   -1.5131    0.5394 H   0  0  0  1  0  0  0  0  0  0  0  0
   -3.8313   -1.0502   -0.2667 C   0  0  0  1  0  0  0  0  0  0  0  0
   -3.5303   -0.4896    0.5935 H   0  0  0  1  0  0  0  0  0  0  0  0
   -4.5290   -0.4767   -0.8406 H   0  0  0  1  0  0  0  0  0  0  0  0
   -2.3707   -0.8370   -1.2820 S   0  3  0  1  0  0  0  0  0  0  0  0
   -2.3289   -2.2884   -2.3287 C   0  0  0  1  0  0  0  0  0  0  0  0
   -3.2969   -2.4491   -2.7554 H   0  0  0  1  0  0  0  0  0  0  0  0
   -2.0508   -3.1409   -1.7449 H   0  0  0  1  0  0  0  0  0  0  0  0
   -1.6141   -2.1429   -3.1115 H   0  0  0  1  0  0  0  0  0  0  0  0
   -1.3579   -1.5578    0.0231 C   0  0  0  1  0  0  0  0  0  0  0  0
   -1.8648   -2.4318    0.3754 H   0  0  0  1  0  0  0  0  0  0  0  0
   -1.2949   -0.8388    0.8130 H   0  0  0  1  0  0  0  0  0  0  0  0
    0.0544   -1.9661   -0.3301 C   0  0  0  1  0  0  0  0  0  0  0  0
    0.0283   -2.7460   -1.0622 H   0  0  0  1  0  0  0  0  0  0  0  0
    0.7866   -0.8347   -0.8357 O   0  0  0  1  0  0  0  0  0  0  0  0
    0.7644   -2.4222    0.8700 C   0  0  0  1  0  0  0  0  0  0  0  0
    0.3382   -1.9825    1.7474 H   0  0  0  1  0  0  0  0  0  0  0  0
    0.7074   -3.8456    0.9742 O   0  0  0  1  0  0  0  0  0  0  0  0
    1.5879   -4.2108    0.8606 H   0  0  0  1  0  0  0  0  0  0  0  0
    2.2019   -1.9585    0.6860 C   0  0  0  1  0  0  0  0  0  0  0  0
    2.6829   -1.7874    1.6264 H   0  0  0  1  0  0  0  0  0  0  0  0
    2.9627   -2.8982   -0.0746 O   0  0  0  1  0  0  0  0  0  0  0  0
    3.7660   -3.1204    0.4017 H   0  0  0  1  0  0  0  0  0  0  0  0
    1.9913   -0.6528   -0.0830 C   0  0  0  1  0  0  0  0  0  0  0  0
    2.8165   -0.4694   -0.7390 H   0  0  0  1  0  0  0  0  0  0  0  0
    1.8474    0.4683    0.8462 N   0  0  0  1  0  0  0  0  0  0  0  0
    0.7327    1.2198    1.0599 C   0  0  0  1  0  0  0  0  0  0  0  0
   -0.1622    1.0475    0.5589 H   0  0  0  1  0  0  0  0  0  0  0  0
    0.8717    2.1728    1.9409 N   0  0  0  1  0  0  0  0  0  0  0  0
    2.1874    2.0410    2.3569 C   0  0  0  1  0  0  0  0  0  0  0  0
    2.9926    2.7273    3.2612 C   0  0  0  1  0  0  0  0  0  0  0  0
    2.5496    3.7959    3.9951 N   0  0  0  1  0  0  0  0  0  0  0  0
    1.6035    4.0500    3.9685 H   0  0  0  1  0  0  0  0  0  0  0  0
    3.1787    4.3062    4.5466 H   0  0  0  1  0  0  0  0  0  0  0  0
    4.2619    2.3459    3.4408 N   0  0  0  1  0  0  0  0  0  0  0  0
    4.7158    1.3093    2.7188 C   0  0  0  1  0  0  0  0  0  0  0  0
    5.7084    1.0464    2.8841 H   0  0  0  1  0  0  0  0  0  0  0  0
    4.0690    0.5746    1.8223 N   0  0  0  1  0  0  0  0  0  0  0  0
    2.8062    0.9801    1.6820 C   0  0  0  1  0  0  0  0  0  0  0  0
  1  2  1  0  0  0  0
  1  3  1  0  0  0  0
  1  4  1  0  0  0  0
  1  5  1  0  0  0  0
  5  6  1  0  0  0  0
  5  7  1  0  0  0  0
  5 10  1  0  0  0  0
  7  8  1  0  0  0  0
  7  9  2  0  0  0  0
 10 11  1  0  0  0  0
 10 12  1  0  0  0  0
 10 13  1  0  0  0  0
 13 14  1  0  0  0  0
 13 15  1  0  0  0  0
 13 16  1  0  0  0  0
 16 17  1  0  0  0  0
 16 21  1  0  0  0  0
 17 18  1  0  0  0  0
 17 19  1  0  0  0  0
 17 20  1  0  0  0  0
 21 22  1  0  0  0  0
 21 23  1  0  0  0  0
 21 24  1  0  0  0  0
 24 25  1  0  0  0  0
 24 26  1  0  0  0  0
 24 27  1  0  0  0  0
 26 35  1  0  0  0  0
 27 28  1  0  0  0  0
 27 29  1  0  0  0  0
 27 31  1  0  0  0  0
 29 30  1  0  0  0  0
 31 32  1  0  0  0  0
 31 33  1  0  0  0  0
 31 35  1  0  0  0  0
 33 34  1  0  0  0  0
 35 36  1  0  0  0  0
 35 37  1  0  0  0  0
 37 38  1  0  0  0  0
 37 50  1  0  0  0  0
 38 39  1  0  0  0  0
 38 40  2  0  0  0  0
 40 41  1  0  0  0  0
 41 42  1  0  0  0  0
 41 50  2  0  0  0  0
 42 43  1  0  0  0  0
 42 46  2  0  0  0  0
 43 44  1  0  0  0  0
 43 45  1  0  0  0  0
 46 47  1  0  0  0  0
 47 48  1  0  0  0  0
 47 49  2  0  0  0  0
 49 50  1  0  0  0  0
M  END
> <ConfClashScore>
0 

> <ConfOneFourInteractionScore>
-0.988075 

> <ConfScore>
0.0181651 

> <ConfScorePBest>
0.00922749 

> <ConfTolerance>
1.18135 

$$$$
SAM.****
  PyMOL2.4          3D                             0

 50 52  0  0  0  0  0  0  0  0999 V2000
   -4.4521   -2.3875   -2.6171 N   0  3  0  1  0  0  0  0  0  0  0  0
   -5.3705   -2.1400   -2.1722 H   0  0  0  1  0  0  0  0  0  0  0  0
   -4.5935   -2.5478   -3.6451 H   0  0  0  1  0  0  0  0  0  0  0  0
   -3.7715   -1.6007   -2.4754 H   0  0  0  1  0  0  0  0  0  0  0  0
   -3.9143   -3.6277   -1.9908 C   0  0  0  1  0  0  0  0  0  0  0  0
   -3.4179   -4.2175   -2.7328 H   0  0  0  1  0  0  0  0  0  0  0  0
   -5.0197   -4.4282   -1.3930 C   0  0  0  1  0  0  0  0  0  0  0  0
   -4.6801   -5.6337   -0.8629 O   0  5  0  1  0  0  0  0  0  0  0  0
   -6.1495   -3.9680   -1.4107 O   0  0  0  1  0  0  0  0  0  0  0  0
   -2.9166   -3.2290   -0.9318 C   0  0  0  1  0  0  0  0  0  0  0  0
   -2.2006   -2.5744   -1.3834 H   0  0  0  1  0  0  0  0  0  0  0  0
   -2.4247   -4.1163   -0.5917 H   0  0  0  1  0  0  0  0  0  0  0  0
   -3.4967   -2.5229    0.2791 C   0  0  0  1  0  0  0  0  0  0  0  0
   -4.2848   -3.1245    0.6814 H   0  0  0  1  0  0  0  0  0  0  0  0
   -3.8914   -1.5782   -0.0317 H   0  0  0  1  0  0  0  0  0  0  0  0
   -2.2887   -2.2437    1.5509 S   0  3  0  1  0  0  0  0  0  0  0  0
   -3.1918   -1.2004    2.6564 C   0  0  0  1  0  0  0  0  0  0  0  0
   -3.0606   -1.5456    3.6606 H   0  0  0  1  0  0  0  0  0  0  0  0
   -4.2310   -1.2275    2.4030 H   0  0  0  1  0  0  0  0  0  0  0  0
   -2.8303   -0.1966    2.5744 H   0  0  0  1  0  0  0  0  0  0  0  0
   -1.1887   -1.0968    0.6895 C   0  0  0  1  0  0  0  0  0  0  0  0
   -0.7071   -0.4845    1.4230 H   0  0  0  1  0  0  0  0  0  0  0  0
   -1.7856   -0.4828    0.0479 H   0  0  0  1  0  0  0  0  0  0  0  0
   -0.1169   -1.7516   -0.1520 C   0  0  0  1  0  0  0  0  0  0  0  0
   -0.5740   -2.3015   -0.9480 H   0  0  0  1  0  0  0  0  0  0  0  0
    0.7762   -0.7566   -0.6831 O   0  0  0  1  0  0  0  0  0  0  0  0
    0.7494   -2.6927    0.7210 C   0  0  0  1  0  0  0  0  0  0  0  0
    0.2425   -2.9535    1.6264 H   0  0  0  1  0  0  0  0  0  0  0  0
    1.0952   -3.8815    0.0087 O   0  0  0  1  0  0  0  0  0  0  0  0
    1.9623   -4.1827    0.2897 H   0  0  0  1  0  0  0  0  0  0  0  0
    1.9794   -1.8491    1.0065 C   0  0  0  1  0  0  0  0  0  0  0  0
    1.8404   -1.2473    1.8802 H   0  0  0  1  0  0  0  0  0  0  0  0
    3.1387   -2.6671    1.1705 O   0  0  0  1  0  0  0  0  0  0  0  0
    3.7938   -2.4308    0.5097 H   0  0  0  1  0  0  0  0  0  0  0  0
    2.0891   -0.9782   -0.2551 C   0  0  0  1  0  0  0  0  0  0  0  0
    2.6461   -1.4890   -1.0125 H   0  0  0  1  0  0  0  0  0  0  0  0
    2.7443    0.2945    0.0596 N   0  0  0  1  0  0  0  0  0  0  0  0
    2.1406    1.4851    0.3259 C   0  0  0  1  0  0  0  0  0  0  0  0
    1.1068    1.5978    0.3362 H   0  0  0  1  0  0  0  0  0  0  0  0
    2.9569    2.4746    0.5674 N   0  0  0  1  0  0  0  0  0  0  0  0
    4.2112    1.8938    0.4621 C   0  0  0  1  0  0  0  0  0  0  0  0
    5.5137    2.3680    0.5865 C   0  0  0  1  0  0  0  0  0  0  0  0
    5.8091    3.6734    0.8792 N   0  0  0  1  0  0  0  0  0  0  0  0
    6.7431    3.9562    0.9688 H   0  0  0  1  0  0  0  0  0  0  0  0
    5.0863    4.3243    0.9991 H   0  0  0  1  0  0  0  0  0  0  0  0
    6.5430    1.5311    0.4172 N   0  0  0  1  0  0  0  0  0  0  0  0
    6.2709    0.2516    0.1158 C   0  0  0  1  0  0  0  0  0  0  0  0
    7.0978   -0.3660   -0.0120 H   0  0  0  1  0  0  0  0  0  0  0  0
    5.0890   -0.3317   -0.0412 N   0  0  0  1  0  0  0  0  0  0  0  0
    4.0915    0.5336    0.1469 C   0  0  0  1  0  0  0  0  0  0  0  0
  1  2  1  0  0  0  0
  1  3  1  0  0  0  0
  1  4  1  0  0  0  0
  1  5  1  0  0  0  0
  5  6  1  0  0  0  0
  5  7  1  0  0  0  0
  5 10  1  0  0  0  0
  7  8  1  0  0  0  0
  7  9  2  0  0  0  0
 10 11  1  0  0  0  0
 10 12  1  0  0  0  0
 10 13  1  0  0  0  0
 13 14  1  0  0  0  0
 13 15  1  0  0  0  0
 13 16  1  0  0  0  0
 16 17  1  0  0  0  0
 16 21  1  0  0  0  0
 17 18  1  0  0  0  0
 17 19  1  0  0  0  0
 17 20  1  0  0  0  0
 21 22  1  0  0  0  0
 21 23  1  0  0  0  0
 21 24  1  0  0  0  0
 24 25  1  0  0  0  0
 24 26  1  0  0  0  0
 24 27  1  0  0  0  0
 26 35  1  0  0  0  0
 27 28  1  0  0  0  0
 27 29  1  0  0  0  0
 27 31  1  0  0  0  0
 29 30  1  0  0  0  0
 31 32  1  0  0  0  0
 31 33  1  0  0  0  0
 31 35  1  0  0  0  0
 33 34  1  0  0  0  0
 35 36  1  0  0  0  0
 35 37  1  0  0  0  0
 37 38  1  0  0  0  0
 37 50  1  0  0  0  0
 38 39  1  0  0  0  0
 38 40  2  0  0  0  0
 40 41  1  0  0  0  0
 41 42  1  0  0  0  0
 41 50  2  0  0  0  0
 42 43  1  0  0  0  0
 42 46  2  0  0  0  0
 43 44  1  0  0  0  0
 43 45  1  0  0  0  0
 46 47  1  0  0  0  0
 47 48  1  0  0  0  0
 47 49  2  0  0  0  0
 49 50  1  0  0  0  0
M  END
> <ConfClashScore>
0 

> <ConfOneFourInteractionScore>
-0.986105 

> <ConfScore>
0.0183938 

> <ConfScorePBest>
0.00912449 

> <ConfTolerance>
1.26773 

$$$$
SAM.****
  PyMOL2.4          3D                             0

 50 52  0  0  0  0  0  0  0  0999 V2000
   -6.4486   -0.0500    0.9510 N   0  3  0  1  0  0  0  0  0  0  0  0
   -6.3828   -0.0958    1.9980 H   0  0  0  1  0  0  0  0  0  0  0  0
   -7.4575   -0.0846    0.6621 H   0  0  0  1  0  0  0  0  0  0  0  0
   -6.0175    0.8456    0.6124 H   0  0  0  1  0  0  0  0  0  0  0  0
   -5.7222   -1.2062    0.3562 C   0  0  0  1  0  0  0  0  0  0  0  0
   -5.9116   -1.2505   -0.6960 H   0  0  0  1  0  0  0  0  0  0  0  0
   -6.2022   -2.4637    0.9953 C   0  0  0  1  0  0  0  0  0  0  0  0
   -5.7416   -3.5785    0.3671 O   0  5  0  1  0  0  0  0  0  0  0  0
   -6.9289   -2.4619    1.9752 O   0  0  0  1  0  0  0  0  0  0  0  0
   -4.2244   -1.0832    0.5904 C   0  0  0  1  0  0  0  0  0  0  0  0
   -3.7590   -2.0249    0.3870 H   0  0  0  1  0  0  0  0  0  0  0  0
   -4.0500   -0.8114    1.6105 H   0  0  0  1  0  0  0  0  0  0  0  0
   -3.6192   -0.0176   -0.3225 C   0  0  0  1  0  0  0  0  0  0  0  0
   -4.0578    0.9308   -0.0922 H   0  0  0  1  0  0  0  0  0  0  0  0
   -3.8281   -0.2698   -1.3412 H   0  0  0  1  0  0  0  0  0  0  0  0
   -1.8437    0.0870   -0.0966 S   0  3  0  1  0  0  0  0  0  0  0  0
   -1.3990   -0.4438   -1.9776 C   0  0  0  1  0  0  0  0  0  0  0  0
   -1.6885   -1.4610   -2.1397 H   0  0  0  1  0  0  0  0  0  0  0  0
   -0.3457   -0.3433   -2.1368 H   0  0  0  1  0  0  0  0  0  0  0  0
   -1.9254    0.1897   -2.6606 H   0  0  0  1  0  0  0  0  0  0  0  0
   -1.3586   -1.5501    0.4804 C   0  0  0  1  0  0  0  0  0  0  0  0
   -2.0864   -2.2719    0.1731 H   0  0  0  1  0  0  0  0  0  0  0  0
   -1.2844   -1.5498    1.5478 H   0  0  0  1  0  0  0  0  0  0  0  0
   -0.0167   -1.8895   -0.1242 C   0  0  0  1  0  0  0  0  0  0  0  0
   -0.1608   -2.4801   -1.0048 H   0  0  0  1  0  0  0  0  0  0  0  0
    0.6934   -0.6834   -0.4524 O   0  0  0  1  0  0  0  0  0  0  0  0
    0.8394   -2.6652    0.8958 C   0  0  0  1  0  0  0  0  0  0  0  0
    0.3234   -2.7639    1.8280 H   0  0  0  1  0  0  0  0  0  0  0  0
    1.1737   -3.9609    0.3964 O   0  0  0  1  0  0  0  0  0  0  0  0
    0.8040   -4.0707   -0.4827 H   0  0  0  1  0  0  0  0  0  0  0  0
    2.1121   -1.7925    1.0600 C   0  0  0  1  0  0  0  0  0  0  0  0
    2.0470   -1.1702    1.9280 H   0  0  0  1  0  0  0  0  0  0  0  0
    3.2890   -2.6008    1.1393 O   0  0  0  1  0  0  0  0  0  0  0  0
    3.9854   -2.2056    0.6097 H   0  0  0  1  0  0  0  0  0  0  0  0
    2.0958   -0.9483   -0.2400 C   0  0  0  1  0  0  0  0  0  0  0  0
    2.5091   -1.4994   -1.0589 H   0  0  0  1  0  0  0  0  0  0  0  0
    2.8417    0.2967   -0.0638 N   0  0  0  1  0  0  0  0  0  0  0  0
    2.6360    1.2539    0.8819 C   0  0  0  1  0  0  0  0  0  0  0  0
    1.8468    1.2116    1.5579 H   0  0  0  1  0  0  0  0  0  0  0  0
    3.5038    2.2290    0.8763 N   0  0  0  1  0  0  0  0  0  0  0  0
    4.3667    1.8897   -0.1542 C   0  0  0  1  0  0  0  0  0  0  0  0
    5.4975    2.4827   -0.7079 C   0  0  0  1  0  0  0  0  0  0  0  0
    6.0178    3.6667   -0.2560 N   0  0  0  1  0  0  0  0  0  0  0  0
    5.5497    4.1737    0.4399 H   0  0  0  1  0  0  0  0  0  0  0  0
    6.8580    4.0067   -0.6286 H   0  0  0  1  0  0  0  0  0  0  0  0
    6.1243    1.8895   -1.7296 N   0  0  0  1  0  0  0  0  0  0  0  0
    5.6189    0.7357   -2.1937 C   0  0  0  1  0  0  0  0  0  0  0  0
    6.1321    0.3083   -2.9909 H   0  0  0  1  0  0  0  0  0  0  0  0
    4.5526    0.0667   -1.7724 N   0  0  0  1  0  0  0  0  0  0  0  0
    3.9648    0.6854   -0.7475 C   0  0  0  1  0  0  0  0  0  0  0  0
  1  2  1  0  0  0  0
  1  3  1  0  0  0  0
  1  4  1  0  0  0  0
  1  5  1  0  0  0  0
  5  6  1  0  0  0  0
  5  7  1  0  0  0  0
  5 10  1  0  0  0  0
  7  8  1  0  0  0  0
  7  9  2  0  0  0  0
 10 11  1  0  0  0  0
 10 12  1  0  0  0  0
 10 13  1  0  0  0  0
 13 14  1  0  0  0  0
 13 15  1  0  0  0  0
 13 16  1  0  0  0  0
 16 17  1  0  0  0  0
 16 21  1  0  0  0  0
 17 18  1  0  0  0  0
 17 19  1  0  0  0  0
 17 20  1  0  0  0  0
 21 22  1  0  0  0  0
 21 23  1  0  0  0  0
 21 24  1  0  0  0  0
 24 25  1  0  0  0  0
 24 26  1  0  0  0  0
 24 27  1  0  0  0  0
 26 35  1  0  0  0  0
 27 28  1  0  0  0  0
 27 29  1  0  0  0  0
 27 31  1  0  0  0  0
 29 30  1  0  0  0  0
 31 32  1  0  0  0  0
 31 33  1  0  0  0  0
 31 35  1  0  0  0  0
 33 34  1  0  0  0  0
 35 36  1  0  0  0  0
 35 37  1  0  0  0  0
 37 38  1  0  0  0  0
 37 50  1  0  0  0  0
 38 39  1  0  0  0  0
 38 40  2  0  0  0  0
 40 41  1  0  0  0  0
 41 42  1  0  0  0  0
 41 50  2  0  0  0  0
 42 43  1  0  0  0  0
 42 46  2  0  0  0  0
 43 44  1  0  0  0  0
 43 45  1  0  0  0  0
 46 47  1  0  0  0  0
 47 48  1  0  0  0  0
 47 49  2  0  0  0  0
 49 50  1  0  0  0  0
M  END
> <ConfClashScore>
0 

> <ConfOneFourInteractionScore>
-0.96975 

> <ConfScore>
0.0186093 

> <ConfScorePBest>
0.00902149 

> <ConfTolerance>
1.21328 

$$$$
SAM.****
  PyMOL2.4          3D                             0

 50 52  0  0  0  0  0  0  0  0999 V2000
   -6.2512   -2.0304   -1.4935 N   0  3  0  1  0  0  0  0  0  0  0  0
   -6.0602   -1.0443   -1.7994 H   0  0  0  1  0  0  0  0  0  0  0  0
   -7.1536   -2.3597   -1.9176 H   0  0  0  1  0  0  0  0  0  0  0  0
   -5.4673   -2.6530   -1.8103 H   0  0  0  1  0  0  0  0  0  0  0  0
   -6.3549   -2.0795    0.0034 C   0  0  0  1  0  0  0  0  0  0  0  0
   -6.5785   -3.0868    0.2869 H   0  0  0  1  0  0  0  0  0  0  0  0
   -7.4394   -1.2031    0.5287 C   0  0  0  1  0  0  0  0  0  0  0  0
   -7.2532   -0.6834    1.7716 O   0  5  0  1  0  0  0  0  0  0  0  0
   -8.4183   -1.0024   -0.1712 O   0  0  0  1  0  0  0  0  0  0  0  0
   -4.9917   -1.7336    0.5709 C   0  0  0  1  0  0  0  0  0  0  0  0
   -5.0839   -1.6225    1.6312 H   0  0  0  1  0  0  0  0  0  0  0  0
   -4.6704   -0.8078    0.1414 H   0  0  0  1  0  0  0  0  0  0  0  0
   -3.9491   -2.7752    0.2907 C   0  0  0  1  0  0  0  0  0  0  0  0
   -4.0708   -2.8646   -0.7686 H   0  0  0  1  0  0  0  0  0  0  0  0
   -4.4045   -3.6139    0.7745 H   0  0  0  1  0  0  0  0  0  0  0  0
   -2.2447   -3.2501    0.4287 S   0  3  0  1  0  0  0  0  0  0  0  0
   -1.9836   -3.1551    2.1821 C   0  0  0  1  0  0  0  0  0  0  0  0
   -0.9356   -3.2105    2.3906 H   0  0  0  1  0  0  0  0  0  0  0  0
   -2.4860   -3.9689    2.6619 H   0  0  0  1  0  0  0  0  0  0  0  0
   -2.3718   -2.2286    2.5505 H   0  0  0  1  0  0  0  0  0  0  0  0
   -1.2944   -1.8347   -0.1563 C   0  0  0  1  0  0  0  0  0  0  0  0
   -1.4420   -1.0390    0.5437 H   0  0  0  1  0  0  0  0  0  0  0  0
   -1.6943   -1.5522   -1.1077 H   0  0  0  1  0  0  0  0  0  0  0  0
    0.1946   -2.0140   -0.3281 C   0  0  0  1  0  0  0  0  0  0  0  0
    0.3811   -2.7637   -1.0685 H   0  0  0  1  0  0  0  0  0  0  0  0
    0.8029   -0.8023   -0.6843 O   0  0  0  1  0  0  0  0  0  0  0  0
    0.8546   -2.3912    1.0061 C   0  0  0  1  0  0  0  0  0  0  0  0
    0.3633   -1.9138    1.8280 H   0  0  0  1  0  0  0  0  0  0  0  0
    0.8470   -3.8059    1.2025 O   0  0  0  1  0  0  0  0  0  0  0  0
    1.5102   -4.2112    0.6391 H   0  0  0  1  0  0  0  0  0  0  0  0
    2.2591   -1.8738    0.8383 C   0  0  0  1  0  0  0  0  0  0  0  0
    2.6963   -1.6362    1.7856 H   0  0  0  1  0  0  0  0  0  0  0  0
    3.0788   -2.8272    0.1606 O   0  0  0  1  0  0  0  0  0  0  0  0
    2.5342   -3.3605   -0.4231 H   0  0  0  1  0  0  0  0  0  0  0  0
    2.0672   -0.6130   -0.0098 C   0  0  0  1  0  0  0  0  0  0  0  0
    2.8609   -0.5140   -0.7206 H   0  0  0  1  0  0  0  0  0  0  0  0
    2.0223    0.5773    0.8416 N   0  0  0  1  0  0  0  0  0  0  0  0
    0.9699    1.4228    1.0162 C   0  0  0  1  0  0  0  0  0  0  0  0
    0.0562    1.2843    0.5391 H   0  0  0  1  0  0  0  0  0  0  0  0
    1.1939    2.4207    1.8273 N   0  0  0  1  0  0  0  0  0  0  0  0
    2.5033    2.2195    2.2355 C   0  0  0  1  0  0  0  0  0  0  0  0
    3.3723    2.9037    3.0803 C   0  0  0  1  0  0  0  0  0  0  0  0
    3.0220    4.0500    3.7437 N   0  0  0  1  0  0  0  0  0  0  0  0
    3.6958    4.5466    4.2533 H   0  0  0  1  0  0  0  0  0  0  0  0
    2.0975    4.3734    3.7086 H   0  0  0  1  0  0  0  0  0  0  0  0
    4.6129    2.4417    3.2707 N   0  0  0  1  0  0  0  0  0  0  0  0
    4.9767    1.3272    2.6168 C   0  0  0  1  0  0  0  0  0  0  0  0
    5.9498    1.0026    2.7880 H   0  0  0  1  0  0  0  0  0  0  0  0
    4.2621    0.5835    1.7812 N   0  0  0  1  0  0  0  0  0  0  0  0
    3.0304    1.0718    1.6283 C   0  0  0  1  0  0  0  0  0  0  0  0
  1  2  1  0  0  0  0
  1  3  1  0  0  0  0
  1  4  1  0  0  0  0
  1  5  1  0  0  0  0
  5  6  1  0  0  0  0
  5  7  1  0  0  0  0
  5 10  1  0  0  0  0
  7  8  1  0  0  0  0
  7  9  2  0  0  0  0
 10 11  1  0  0  0  0
 10 12  1  0  0  0  0
 10 13  1  0  0  0  0
 13 14  1  0  0  0  0
 13 15  1  0  0  0  0
 13 16  1  0  0  0  0
 16 17  1  0  0  0  0
 16 21  1  0  0  0  0
 17 18  1  0  0  0  0
 17 19  1  0  0  0  0
 17 20  1  0  0  0  0
 21 22  1  0  0  0  0
 21 23  1  0  0  0  0
 21 24  1  0  0  0  0
 24 25  1  0  0  0  0
 24 26  1  0  0  0  0
 24 27  1  0  0  0  0
 26 35  1  0  0  0  0
 27 28  1  0  0  0  0
 27 29  1  0  0  0  0
 27 31  1  0  0  0  0
 29 30  1  0  0  0  0
 31 32  1  0  0  0  0
 31 33  1  0  0  0  0
 31 35  1  0  0  0  0
 33 34  1  0  0  0  0
 35 36  1  0  0  0  0
 35 37  1  0  0  0  0
 37 38  1  0  0  0  0
 37 50  1  0  0  0  0
 38 39  1  0  0  0  0
 38 40  2  0  0  0  0
 40 41  1  0  0  0  0
 41 42  1  0  0  0  0
 41 50  2  0  0  0  0
 42 43  1  0  0  0  0
 42 46  2  0  0  0  0
 43 44  1  0  0  0  0
 43 45  1  0  0  0  0
 46 47  1  0  0  0  0
 47 48  1  0  0  0  0
 47 49  2  0  0  0  0
 49 50  1  0  0  0  0
M  END
> <ConfClashScore>
0 

> <ConfOneFourInteractionScore>
-0.986105 

> <ConfScore>
0.0187738 

> <ConfScorePBest>
0.00891849 

> <ConfTolerance>
1.19908 

$$$$
SAM.****
  PyMOL2.4          3D                             0

 50 52  0  0  0  0  0  0  0  0999 V2000
   -0.0531   -4.3545    4.2174 N   0  3  0  1  0  0  0  0  0  0  0  0
    0.2122   -3.5743    3.5668 H   0  0  0  1  0  0  0  0  0  0  0  0
    0.6476   -5.1322    4.1350 H   0  0  0  1  0  0  0  0  0  0  0  0
   -0.0659   -3.9975    5.2048 H   0  0  0  1  0  0  0  0  0  0  0  0
   -1.4059   -4.8651    3.8566 C   0  0  0  1  0  0  0  0  0  0  0  0
   -2.0885   -4.6017    4.6373 H   0  0  0  1  0  0  0  0  0  0  0  0
   -1.3698   -6.3512    3.7558 C   0  0  0  1  0  0  0  0  0  0  0  0
   -2.6069   -6.8703    3.5324 O   0  5  0  1  0  0  0  0  0  0  0  0
   -0.3613   -7.0299    3.8591 O   0  0  0  1  0  0  0  0  0  0  0  0
   -1.8934   -4.2271    2.5700 C   0  0  0  1  0  0  0  0  0  0  0  0
   -2.7800   -4.7359    2.2538 H   0  0  0  1  0  0  0  0  0  0  0  0
   -1.1326   -4.3395    1.8261 H   0  0  0  1  0  0  0  0  0  0  0  0
   -2.2116   -2.7498    2.7137 C   0  0  0  1  0  0  0  0  0  0  0  0
   -1.3268   -2.2147    2.9888 H   0  0  0  1  0  0  0  0  0  0  0  0
   -2.9602   -2.6129    3.4658 H   0  0  0  1  0  0  0  0  0  0  0  0
   -2.8178   -2.1477    1.1403 S   0  3  0  1  0  0  0  0  0  0  0  0
   -2.9977   -3.6131    0.1357 C   0  0  0  1  0  0  0  0  0  0  0  0
   -3.1800   -3.3298   -0.8799 H   0  0  0  1  0  0  0  0  0  0  0  0
   -3.8205   -4.1940    0.4968 H   0  0  0  1  0  0  0  0  0  0  0  0
   -2.1004   -4.1936    0.1881 H   0  0  0  1  0  0  0  0  0  0  0  0
   -1.3902   -1.4921    0.4263 C   0  0  0  1  0  0  0  0  0  0  0  0
   -1.0880   -0.8322    1.2125 H   0  0  0  1  0  0  0  0  0  0  0  0
   -1.8343   -0.9251   -0.3650 H   0  0  0  1  0  0  0  0  0  0  0  0
   -0.0420   -1.7704   -0.1951 C   0  0  0  1  0  0  0  0  0  0  0  0
   -0.1761   -2.2828   -1.1248 H   0  0  0  1  0  0  0  0  0  0  0  0
    0.6633   -0.5366   -0.4115 O   0  0  0  1  0  0  0  0  0  0  0  0
    0.8113   -2.6274    0.7602 C   0  0  0  1  0  0  0  0  0  0  0  0
    0.2892   -2.8097    1.6762 H   0  0  0  1  0  0  0  0  0  0  0  0
    1.1569   -3.8730    0.1525 O   0  0  0  1  0  0  0  0  0  0  0  0
    1.8397   -4.3043    0.6716 H   0  0  0  1  0  0  0  0  0  0  0  0
    2.0776   -1.7656    1.0095 C   0  0  0  1  0  0  0  0  0  0  0  0
    2.0026   -1.2216    1.9279 H   0  0  0  1  0  0  0  0  0  0  0  0
    3.2574   -2.5706    1.0273 O   0  0  0  1  0  0  0  0  0  0  0  0
    3.3314   -3.0490    0.1983 H   0  0  0  1  0  0  0  0  0  0  0  0
    2.0657   -0.8115   -0.2122 C   0  0  0  1  0  0  0  0  0  0  0  0
    2.4882   -1.2870   -1.0727 H   0  0  0  1  0  0  0  0  0  0  0  0
    2.8030    0.4175    0.0776 N   0  0  0  1  0  0  0  0  0  0  0  0
    3.9296    0.8538   -0.5495 C   0  0  0  1  0  0  0  0  0  0  0  0
    4.3037    0.3997   -1.4071 H   0  0  0  1  0  0  0  0  0  0  0  0
    4.5052    1.8849    0.0067 N   0  0  0  1  0  0  0  0  0  0  0  0
    3.6893    2.1662    1.0915 C   0  0  0  1  0  0  0  0  0  0  0  0
    3.7176    3.1186    2.1059 C   0  0  0  1  0  0  0  0  0  0  0  0
    4.6959    4.0722    2.2087 N   0  0  0  1  0  0  0  0  0  0  0  0
    5.4712    4.0453    1.6098 H   0  0  0  1  0  0  0  0  0  0  0  0
    4.6205    4.7811    2.8810 H   0  0  0  1  0  0  0  0  0  0  0  0
    2.7569    3.1252    3.0362 N   0  0  0  1  0  0  0  0  0  0  0  0
    1.7986    2.1885    2.9580 C   0  0  0  1  0  0  0  0  0  0  0  0
    1.0725    2.2246    3.7017 H   0  0  0  1  0  0  0  0  0  0  0  0
    1.6525    1.2223    2.0596 N   0  0  0  1  0  0  0  0  0  0  0  0
    2.6231    1.2583    1.1455 C   0  0  0  1  0  0  0  0  0  0  0  0
  1  2  1  0  0  0  0
  1  3  1  0  0  0  0
  1  4  1  0  0  0  0
  1  5  1  0  0  0  0
  5  6  1  0  0  0  0
  5  7  1  0  0  0  0
  5 10  1  0  0  0  0
  7  8  1  0  0  0  0
  7  9  2  0  0  0  0
 10 11  1  0  0  0  0
 10 12  1  0  0  0  0
 10 13  1  0  0  0  0
 13 14  1  0  0  0  0
 13 15  1  0  0  0  0
 13 16  1  0  0  0  0
 16 17  1  0  0  0  0
 16 21  1  0  0  0  0
 17 18  1  0  0  0  0
 17 19  1  0  0  0  0
 17 20  1  0  0  0  0
 21 22  1  0  0  0  0
 21 23  1  0  0  0  0
 21 24  1  0  0  0  0
 24 25  1  0  0  0  0
 24 26  1  0  0  0  0
 24 27  1  0  0  0  0
 26 35  1  0  0  0  0
 27 28  1  0  0  0  0
 27 29  1  0  0  0  0
 27 31  1  0  0  0  0
 29 30  1  0  0  0  0
 31 32  1  0  0  0  0
 31 33  1  0  0  0  0
 31 35  1  0  0  0  0
 33 34  1  0  0  0  0
 35 36  1  0  0  0  0
 35 37  1  0  0  0  0
 37 38  1  0  0  0  0
 37 50  1  0  0  0  0
 38 39  1  0  0  0  0
 38 40  2  0  0  0  0
 40 41  1  0  0  0  0
 41 42  1  0  0  0  0
 41 50  2  0  0  0  0
 42 43  1  0  0  0  0
 42 46  2  0  0  0  0
 43 44  1  0  0  0  0
 43 45  1  0  0  0  0
 46 47  1  0  0  0  0
 47 48  1  0  0  0  0
 47 49  2  0  0  0  0
 49 50  1  0  0  0  0
M  END
> <ConfClashScore>
0 

> <ConfOneFourInteractionScore>
-0.96848 

> <ConfScore>
0.0215602 

> <ConfScorePBest>
0.00881549 

> <ConfTolerance>
1.30376 

$$$$
SAM.****
  PyMOL2.4          3D                             0

 50 52  0  0  0  0  0  0  0  0999 V2000
   -5.3554   -1.5169   -1.9702 N   0  3  0  1  0  0  0  0  0  0  0  0
   -4.9996   -2.4725   -1.7198 H   0  0  0  1  0  0  0  0  0  0  0  0
   -5.3903   -1.4194   -3.0151 H   0  0  0  1  0  0  0  0  0  0  0  0
   -6.3190   -1.3876   -1.5737 H   0  0  0  1  0  0  0  0  0  0  0  0
   -4.4436   -0.4830   -1.4054 C   0  0  0  1  0  0  0  0  0  0  0  0
   -4.8481    0.4912   -1.5847 H   0  0  0  1  0  0  0  0  0  0  0  0
   -3.1246   -0.5993   -2.0888 C   0  0  0  1  0  0  0  0  0  0  0  0
   -2.2511    0.3514   -1.6613 O   0  5  0  1  0  0  0  0  0  0  0  0
   -2.8500   -1.4395   -2.9297 O   0  0  0  1  0  0  0  0  0  0  0  0
   -4.3010   -0.6946    0.0895 C   0  0  0  1  0  0  0  0  0  0  0  0
   -5.2248   -0.4289    0.5594 H   0  0  0  1  0  0  0  0  0  0  0  0
   -3.5208   -0.0570    0.4495 H   0  0  0  1  0  0  0  0  0  0  0  0
   -3.9679   -2.1107    0.4611 C   0  0  0  1  0  0  0  0  0  0  0  0
   -4.7983   -2.7208    0.1727 H   0  0  0  1  0  0  0  0  0  0  0  0
   -3.8527   -2.1437    1.5244 H   0  0  0  1  0  0  0  0  0  0  0  0
   -2.4702   -2.8472   -0.2723 S   0  3  0  1  0  0  0  0  0  0  0  0
   -1.9546   -4.3004    0.4594 C   0  0  0  1  0  0  0  0  0  0  0  0
   -1.0504   -4.6334   -0.0059 H   0  0  0  1  0  0  0  0  0  0  0  0
   -2.7120   -5.0471    0.3415 H   0  0  0  1  0  0  0  0  0  0  0  0
   -1.7783   -4.1319    1.5012 H   0  0  0  1  0  0  0  0  0  0  0  0
   -1.3351   -1.6371    0.4317 C   0  0  0  1  0  0  0  0  0  0  0  0
   -1.2805   -1.7672    1.4924 H   0  0  0  1  0  0  0  0  0  0  0  0
   -1.6783   -0.6482    0.2103 H   0  0  0  1  0  0  0  0  0  0  0  0
    0.0305   -1.8526   -0.1802 C   0  0  0  1  0  0  0  0  0  0  0  0
   -0.0711   -2.3882   -1.1009 H   0  0  0  1  0  0  0  0  0  0  0  0
    0.6683   -0.5862   -0.4164 O   0  0  0  1  0  0  0  0  0  0  0  0
    0.9249   -2.6444    0.7936 C   0  0  0  1  0  0  0  0  0  0  0  0
    0.4092   -2.8385    1.7109 H   0  0  0  1  0  0  0  0  0  0  0  0
    1.3408   -3.8799    0.2099 O   0  0  0  1  0  0  0  0  0  0  0  0
    0.7161   -4.5707    0.4427 H   0  0  0  1  0  0  0  0  0  0  0  0
    2.1410   -1.7103    1.0319 C   0  0  0  1  0  0  0  0  0  0  0  0
    2.0321   -1.1548    1.9400 H   0  0  0  1  0  0  0  0  0  0  0  0
    3.3629   -2.4491    1.0687 O   0  0  0  1  0  0  0  0  0  0  0  0
    3.5926   -2.7328    0.1808 H   0  0  0  1  0  0  0  0  0  0  0  0
    2.0828   -0.7804   -0.2069 C   0  0  0  1  0  0  0  0  0  0  0  0
    2.5345   -1.2474   -1.0571 H   0  0  0  1  0  0  0  0  0  0  0  0
    2.7484    0.4883    0.0623 N   0  0  0  1  0  0  0  0  0  0  0  0
    2.3961    1.4196    0.9904 C   0  0  0  1  0  0  0  0  0  0  0  0
    1.5820    1.2959    1.6256 H   0  0  0  1  0  0  0  0  0  0  0  0
    3.1570    2.4797    1.0230 N   0  0  0  1  0  0  0  0  0  0  0  0
    4.1021    2.2313    0.0398 C   0  0  0  1  0  0  0  0  0  0  0  0
    5.1920    2.9384   -0.4593 C   0  0  0  1  0  0  0  0  0  0  0  0
    5.5625    4.1706    0.0112 N   0  0  0  1  0  0  0  0  0  0  0  0
    6.3570    4.6150   -0.3515 H   0  0  0  1  0  0  0  0  0  0  0  0
    5.0329    4.6076    0.7105 H   0  0  0  1  0  0  0  0  0  0  0  0
    5.9286    2.4129   -1.4442 N   0  0  0  1  0  0  0  0  0  0  0  0
    5.5703    1.2124   -1.9262 C   0  0  0  1  0  0  0  0  0  0  0  0
    6.1653    0.8400   -2.6937 H   0  0  0  1  0  0  0  0  0  0  0  0
    4.5592    0.4363   -1.5556 N   0  0  0  1  0  0  0  0  0  0  0  0
    3.8585    0.9912   -0.5657 C   0  0  0  1  0  0  0  0  0  0  0  0
  1  2  1  0  0  0  0
  1  3  1  0  0  0  0
  1  4  1  0  0  0  0
  1  5  1  0  0  0  0
  5  6  1  0  0  0  0
  5  7  1  0  0  0  0
  5 10  1  0  0  0  0
  7  8  1  0  0  0  0
  7  9  2  0  0  0  0
 10 11  1  0  0  0  0
 10 12  1  0  0  0  0
 10 13  1  0  0  0  0
 13 14  1  0  0  0  0
 13 15  1  0  0  0  0
 13 16  1  0  0  0  0
 16 17  1  0  0  0  0
 16 21  1  0  0  0  0
 17 18  1  0  0  0  0
 17 19  1  0  0  0  0
 17 20  1  0  0  0  0
 21 22  1  0  0  0  0
 21 23  1  0  0  0  0
 21 24  1  0  0  0  0
 24 25  1  0  0  0  0
 24 26  1  0  0  0  0
 24 27  1  0  0  0  0
 26 35  1  0  0  0  0
 27 28  1  0  0  0  0
 27 29  1  0  0  0  0
 27 31  1  0  0  0  0
 29 30  1  0  0  0  0
 31 32  1  0  0  0  0
 31 33  1  0  0  0  0
 31 35  1  0  0  0  0
 33 34  1  0  0  0  0
 35 36  1  0  0  0  0
 35 37  1  0  0  0  0
 37 38  1  0  0  0  0
 37 50  1  0  0  0  0
 38 39  1  0  0  0  0
 38 40  2  0  0  0  0
 40 41  1  0  0  0  0
 41 42  1  0  0  0  0
 41 50  2  0  0  0  0
 42 43  1  0  0  0  0
 42 46  2  0  0  0  0
 43 44  1  0  0  0  0
 43 45  1  0  0  0  0
 46 47  1  0  0  0  0
 47 48  1  0  0  0  0
 47 49  2  0  0  0  0
 49 50  1  0  0  0  0
M  END
> <ConfClashScore>
0 

> <ConfOneFourInteractionScore>
-0.981428 

> <ConfScore>
0.0223773 

> <ConfScorePBest>
0.00871249 

> <ConfTolerance>
1.34454 

$$$$
SAM.****
  PyMOL2.4          3D                             0

 50 52  0  0  0  0  0  0  0  0999 V2000
   -1.0064    4.2524    2.3554 N   0  3  0  1  0  0  0  0  0  0  0  0
   -2.0226    4.3024    2.6150 H   0  0  0  1  0  0  0  0  0  0  0  0
   -0.5037    5.0864    2.7481 H   0  0  0  1  0  0  0  0  0  0  0  0
   -0.5878    3.3735    2.7487 H   0  0  0  1  0  0  0  0  0  0  0  0
   -0.8720    4.2453    0.8717 C   0  0  0  1  0  0  0  0  0  0  0  0
    0.1633    4.2104    0.6037 H   0  0  0  1  0  0  0  0  0  0  0  0
   -1.4733    5.5014    0.3418 C   0  0  0  1  0  0  0  0  0  0  0  0
   -0.6658    6.0974   -0.5760 O   0  5  0  1  0  0  0  0  0  0  0  0
   -2.5557    5.9502    0.6814 O   0  0  0  1  0  0  0  0  0  0  0  0
   -1.5700    3.0327    0.3077 C   0  0  0  1  0  0  0  0  0  0  0  0
   -1.5030    3.0804   -0.7592 H   0  0  0  1  0  0  0  0  0  0  0  0
   -2.5973    3.0765    0.6034 H   0  0  0  1  0  0  0  0  0  0  0  0
   -1.0087    1.6835    0.7546 C   0  0  0  1  0  0  0  0  0  0  0  0
   -1.0570    1.6205    1.8216 H   0  0  0  1  0  0  0  0  0  0  0  0
    0.0104    1.6062    0.4379 H   0  0  0  1  0  0  0  0  0  0  0  0
   -1.9554    0.3203    0.0384 S   0  3  0  1  0  0  0  0  0  0  0  0
   -3.4497    0.4178    1.0371 C   0  0  0  1  0  0  0  0  0  0  0  0
   -3.2933    1.0977    1.8484 H   0  0  0  1  0  0  0  0  0  0  0  0
   -3.6832   -0.5518    1.4247 H   0  0  0  1  0  0  0  0  0  0  0  0
   -4.2607    0.7654    0.4319 H   0  0  0  1  0  0  0  0  0  0  0  0
   -1.1380   -1.0815    0.8324 C   0  0  0  1  0  0  0  0  0  0  0  0
   -1.8763   -1.8012    1.1182 H   0  0  0  1  0  0  0  0  0  0  0  0
   -0.6191   -0.7372    1.7025 H   0  0  0  1  0  0  0  0  0  0  0  0
   -0.1507   -1.7329   -0.1057 C   0  0  0  1  0  0  0  0  0  0  0  0
   -0.6802   -2.2625   -0.8699 H   0  0  0  1  0  0  0  0  0  0  0  0
    0.7085   -0.7393   -0.6925 O   0  0  0  1  0  0  0  0  0  0  0  0
    0.7725   -2.7003    0.6754 C   0  0  0  1  0  0  0  0  0  0  0  0
    0.3394   -2.9714    1.6155 H   0  0  0  1  0  0  0  0  0  0  0  0
    1.0413   -3.8800   -0.0837 O   0  0  0  1  0  0  0  0  0  0  0  0
    1.8995   -4.2318    0.1639 H   0  0  0  1  0  0  0  0  0  0  0  0
    2.0335   -1.8771    0.8714 C   0  0  0  1  0  0  0  0  0  0  0  0
    1.9762   -1.2897    1.7639 H   0  0  0  1  0  0  0  0  0  0  0  0
    3.1917   -2.7125    0.9236 O   0  0  0  1  0  0  0  0  0  0  0  0
    3.8550   -2.3058    1.4859 H   0  0  0  1  0  0  0  0  0  0  0  0
    2.0493   -0.9847   -0.3798 C   0  0  0  1  0  0  0  0  0  0  0  0
    2.5341   -1.4884   -1.1899 H   0  0  0  1  0  0  0  0  0  0  0  0
    2.7459    0.2740   -0.0993 N   0  0  0  1  0  0  0  0  0  0  0  0
    3.7815    0.8532   -0.7662 C   0  0  0  1  0  0  0  0  0  0  0  0
    4.2095    0.4271   -1.6129 H   0  0  0  1  0  0  0  0  0  0  0  0
    4.1969    1.9838   -0.2631 N   0  0  0  1  0  0  0  0  0  0  0  0
    3.3627    2.1803    0.8264 C   0  0  0  1  0  0  0  0  0  0  0  0
    3.2565    3.1674    1.8016 C   0  0  0  1  0  0  0  0  0  0  0  0
    4.0809    4.2725    1.8468 N   0  0  0  1  0  0  0  0  0  0  0  0
    3.9892    4.9229    2.5741 H   0  0  0  1  0  0  0  0  0  0  0  0
    4.7583    4.4072    1.1516 H   0  0  0  1  0  0  0  0  0  0  0  0
    2.3199    3.0638    2.7507 N   0  0  0  1  0  0  0  0  0  0  0  0
    1.5186    1.9870    2.7293 C   0  0  0  1  0  0  0  0  0  0  0  0
    0.8066    1.9411    3.4860 H   0  0  0  1  0  0  0  0  0  0  0  0
    1.5124    0.9729    1.8729 N   0  0  0  1  0  0  0  0  0  0  0  0
    2.4523    1.1208    0.9382 C   0  0  0  1  0  0  0  0  0  0  0  0
  1  2  1  0  0  0  0
  1  3  1  0  0  0  0
  1  4  1  0  0  0  0
  1  5  1  0  0  0  0
  5  6  1  0  0  0  0
  5  7  1  0  0  0  0
  5 10  1  0  0  0  0
  7  8  1  0  0  0  0
  7  9  2  0  0  0  0
 10 11  1  0  0  0  0
 10 12  1  0  0  0  0
 10 13  1  0  0  0  0
 13 14  1  0  0  0  0
 13 15  1  0  0  0  0
 13 16  1  0  0  0  0
 16 17  1  0  0  0  0
 16 21  1  0  0  0  0
 17 18  1  0  0  0  0
 17 19  1  0  0  0  0
 17 20  1  0  0  0  0
 21 22  1  0  0  0  0
 21 23  1  0  0  0  0
 21 24  1  0  0  0  0
 24 25  1  0  0  0  0
 24 26  1  0  0  0  0
 24 27  1  0  0  0  0
 26 35  1  0  0  0  0
 27 28  1  0  0  0  0
 27 29  1  0  0  0  0
 27 31  1  0  0  0  0
 29 30  1  0  0  0  0
 31 32  1  0  0  0  0
 31 33  1  0  0  0  0
 31 35  1  0  0  0  0
 33 34  1  0  0  0  0
 35 36  1  0  0  0  0
 35 37  1  0  0  0  0
 37 38  1  0  0  0  0
 37 50  1  0  0  0  0
 38 39  1  0  0  0  0
 38 40  2  0  0  0  0
 40 41  1  0  0  0  0
 41 42  1  0  0  0  0
 41 50  2  0  0  0  0
 42 43  1  0  0  0  0
 42 46  2  0  0  0  0
 43 44  1  0  0  0  0
 43 45  1  0  0  0  0
 46 47  1  0  0  0  0
 47 48  1  0  0  0  0
 47 49  2  0  0  0  0
 49 50  1  0  0  0  0
M  END
> <ConfClashScore>
0 

> <ConfOneFourInteractionScore>
-0.988075 

> <ConfScore>
0.0228185 

> <ConfScorePBest>
0.00860949 

> <ConfTolerance>
1.30985 

$$$$
SAM.****
  PyMOL2.4          3D                             0

 50 52  0  0  0  0  0  0  0  0999 V2000
    0.2898    2.0501   -2.0268 N   0  3  0  1  0  0  0  0  0  0  0  0
    0.5601    1.1012   -1.6677 H   0  0  0  1  0  0  0  0  0  0  0  0
    0.5705    2.7816   -1.3278 H   0  0  0  1  0  0  0  0  0  0  0  0
    0.7780    2.2311   -2.9386 H   0  0  0  1  0  0  0  0  0  0  0  0
   -1.1845    2.1019   -2.2344 C   0  0  0  1  0  0  0  0  0  0  0  0
   -1.5185    1.1872   -2.6777 H   0  0  0  1  0  0  0  0  0  0  0  0
   -1.4874    3.2326   -3.1564 C   0  0  0  1  0  0  0  0  0  0  0  0
   -2.7997    3.2822   -3.5097 O   0  5  0  1  0  0  0  0  0  0  0  0
   -0.6300    4.0131   -3.5360 O   0  0  0  1  0  0  0  0  0  0  0  0
   -1.8804    2.2902   -0.8951 C   0  0  0  1  0  0  0  0  0  0  0  0
   -2.9393    2.3002   -1.0483 H   0  0  0  1  0  0  0  0  0  0  0  0
   -1.5725    3.2215   -0.4676 H   0  0  0  1  0  0  0  0  0  0  0  0
   -1.5348    1.1913    0.0348 C   0  0  0  1  0  0  0  0  0  0  0  0
   -1.8965    1.4531    1.0072 H   0  0  0  1  0  0  0  0  0  0  0  0
   -0.4688    1.1024    0.0623 H   0  0  0  1  0  0  0  0  0  0  0  0
   -2.2211   -0.4226   -0.4030 S   0  3  0  1  0  0  0  0  0  0  0  0
   -3.8591   -0.3148    0.3106 C   0  0  0  1  0  0  0  0  0  0  0  0
   -3.7850    0.0092    1.3277 H   0  0  0  1  0  0  0  0  0  0  0  0
   -4.3269   -1.2765    0.2761 H   0  0  0  1  0  0  0  0  0  0  0  0
   -4.4446    0.3873   -0.2454 H   0  0  0  1  0  0  0  0  0  0  0  0
   -1.3623   -1.4865    0.6185 C   0  0  0  1  0  0  0  0  0  0  0  0
   -1.9123   -2.3899    0.7800 H   0  0  0  1  0  0  0  0  0  0  0  0
   -1.1492   -1.0249    1.5600 H   0  0  0  1  0  0  0  0  0  0  0  0
   -0.0898   -1.7578   -0.1515 C   0  0  0  1  0  0  0  0  0  0  0  0
   -0.3287   -2.2311   -1.0809 H   0  0  0  1  0  0  0  0  0  0  0  0
    0.6103   -0.5258   -0.3933 O   0  0  0  1  0  0  0  0  0  0  0  0
    0.8434   -2.6633    0.6758 C   0  0  0  1  0  0  0  0  0  0  0  0
    0.4164   -2.8749    1.6338 H   0  0  0  1  0  0  0  0  0  0  0  0
    1.0998   -3.8759   -0.0050 O   0  0  0  1  0  0  0  0  0  0  0  0
    1.2954   -4.5663    0.6327 H   0  0  0  1  0  0  0  0  0  0  0  0
    2.1434   -1.8288    0.8240 C   0  0  0  1  0  0  0  0  0  0  0  0
    2.1737   -1.3208    1.7652 H   0  0  0  1  0  0  0  0  0  0  0  0
    3.3046   -2.6493    0.6874 O   0  0  0  1  0  0  0  0  0  0  0  0
    3.9012   -2.4850    1.4214 H   0  0  0  1  0  0  0  0  0  0  0  0
    2.0209   -0.8268   -0.3525 C   0  0  0  1  0  0  0  0  0  0  0  0
    2.3433   -1.2732   -1.2700 H   0  0  0  1  0  0  0  0  0  0  0  0
    2.8065    0.3816   -0.0944 N   0  0  0  1  0  0  0  0  0  0  0  0
    2.4196    1.4819    0.6073 C   0  0  0  1  0  0  0  0  0  0  0  0
    1.4579    1.5932    0.9872 H   0  0  0  1  0  0  0  0  0  0  0  0
    3.3465    2.3868    0.7676 N   0  0  0  1  0  0  0  0  0  0  0  0
    4.4475    1.8408    0.1263 C   0  0  0  1  0  0  0  0  0  0  0  0
    5.7533    2.2691   -0.0942 C   0  0  0  1  0  0  0  0  0  0  0  0
    6.2313    3.4717    0.3552 N   0  0  0  1  0  0  0  0  0  0  0  0
    5.6447    4.0757    0.8568 H   0  0  0  1  0  0  0  0  0  0  0  0
    7.1599    3.7281    0.1752 H   0  0  0  1  0  0  0  0  0  0  0  0
    6.6010    1.4892   -0.7737 N   0  0  0  1  0  0  0  0  0  0  0  0
    6.1441    0.3136   -1.2333 C   0  0  0  1  0  0  0  0  0  0  0  0
    6.8322   -0.2615   -1.7599 H   0  0  0  1  0  0  0  0  0  0  0  0
    4.9327   -0.2138   -1.1065 N   0  0  0  1  0  0  0  0  0  0  0  0
    4.1234    0.5892   -0.4143 C   0  0  0  1  0  0  0  0  0  0  0  0
  1  2  1  0  0  0  0
  1  3  1  0  0  0  0
  1  4  1  0  0  0  0
  1  5  1  0  0  0  0
  5  6  1  0  0  0  0
  5  7  1  0  0  0  0
  5 10  1  0  0  0  0
  7  8  1  0  0  0  0
  7  9  2  0  0  0  0
 10 11  1  0  0  0  0
 10 12  1  0  0  0  0
 10 13  1  0  0  0  0
 13 14  1  0  0  0  0
 13 15  1  0  0  0  0
 13 16  1  0  0  0  0
 16 17  1  0  0  0  0
 16 21  1  0  0  0  0
 17 18  1  0  0  0  0
 17 19  1  0  0  0  0
 17 20  1  0  0  0  0
 21 22  1  0  0  0  0
 21 23  1  0  0  0  0
 21 24  1  0  0  0  0
 24 25  1  0  0  0  0
 24 26  1  0  0  0  0
 24 27  1  0  0  0  0
 26 35  1  0  0  0  0
 27 28  1  0  0  0  0
 27 29  1  0  0  0  0
 27 31  1  0  0  0  0
 29 30  1  0  0  0  0
 31 32  1  0  0  0  0
 31 33  1  0  0  0  0
 31 35  1  0  0  0  0
 33 34  1  0  0  0  0
 35 36  1  0  0  0  0
 35 37  1  0  0  0  0
 37 38  1  0  0  0  0
 37 50  1  0  0  0  0
 38 39  1  0  0  0  0
 38 40  2  0  0  0  0
 40 41  1  0  0  0  0
 41 42  1  0  0  0  0
 41 50  2  0  0  0  0
 42 43  1  0  0  0  0
 42 46  2  0  0  0  0
 43 44  1  0  0  0  0
 43 45  1  0  0  0  0
 46 47  1  0  0  0  0
 47 48  1  0  0  0  0
 47 49  2  0  0  0  0
 49 50  1  0  0  0  0
M  END
> <ConfClashScore>
0 

> <ConfOneFourInteractionScore>
-0.986105 

> <ConfScore>
0.0248022 

> <ConfScorePBest>
0.00850649 

> <ConfTolerance>
1.22538 

$$$$
SAM.****
  PyMOL2.4          3D                             0

 50 52  0  0  0  0  0  0  0  0999 V2000
   -6.4455    0.4066    0.2557 N   0  3  0  1  0  0  0  0  0  0  0  0
   -6.8760    1.3471    0.4363 H   0  0  0  1  0  0  0  0  0  0  0  0
   -5.8570    0.1274    1.0792 H   0  0  0  1  0  0  0  0  0  0  0  0
   -7.2051   -0.3037    0.1108 H   0  0  0  1  0  0  0  0  0  0  0  0
   -5.5920    0.4762   -0.9634 C   0  0  0  1  0  0  0  0  0  0  0  0
   -4.7513    1.1180   -0.8016 H   0  0  0  1  0  0  0  0  0  0  0  0
   -6.4183    0.9854   -2.0939 C   0  0  0  1  0  0  0  0  0  0  0  0
   -5.6876    1.1032   -3.2349 O   0  5  0  1  0  0  0  0  0  0  0  0
   -7.6182    1.1918   -2.0166 O   0  0  0  1  0  0  0  0  0  0  0  0
   -5.1192   -0.9261   -1.3490 C   0  0  0  1  0  0  0  0  0  0  0  0
   -4.7081   -0.8985   -2.3365 H   0  0  0  1  0  0  0  0  0  0  0  0
   -5.9535   -1.5957   -1.3280 H   0  0  0  1  0  0  0  0  0  0  0  0
   -4.0519   -1.4246   -0.3757 C   0  0  0  1  0  0  0  0  0  0  0  0
   -3.8752   -2.4649   -0.5528 H   0  0  0  1  0  0  0  0  0  0  0  0
   -4.4006   -1.2871    0.6265 H   0  0  0  1  0  0  0  0  0  0  0  0
   -2.5246   -0.5286   -0.5901 S   0  3  0  1  0  0  0  0  0  0  0  0
   -2.0394   -1.0437   -2.2344 C   0  0  0  1  0  0  0  0  0  0  0  0
   -1.1313   -0.5496   -2.5101 H   0  0  0  1  0  0  0  0  0  0  0  0
   -2.8105   -0.7869   -2.9304 H   0  0  0  1  0  0  0  0  0  0  0  0
   -1.8865   -2.1027   -2.2455 H   0  0  0  1  0  0  0  0  0  0  0  0
   -1.3910   -1.4904    0.4381 C   0  0  0  1  0  0  0  0  0  0  0  0
   -1.8574   -2.4277    0.6592 H   0  0  0  1  0  0  0  0  0  0  0  0
   -1.2273   -0.9498    1.3469 H   0  0  0  1  0  0  0  0  0  0  0  0
   -0.0458   -1.7724   -0.1883 C   0  0  0  1  0  0  0  0  0  0  0  0
   -0.1845   -2.2923   -1.1132 H   0  0  0  1  0  0  0  0  0  0  0  0
    0.6570   -0.5397   -0.4184 O   0  0  0  1  0  0  0  0  0  0  0  0
    0.8134   -2.6210    0.7691 C   0  0  0  1  0  0  0  0  0  0  0  0
    0.2964   -2.7965    1.6893 H   0  0  0  1  0  0  0  0  0  0  0  0
    1.1569   -3.8710    0.1694 O   0  0  0  1  0  0  0  0  0  0  0  0
    1.9431   -4.2240    0.5924 H   0  0  0  1  0  0  0  0  0  0  0  0
    2.0802   -1.7561    1.0048 C   0  0  0  1  0  0  0  0  0  0  0  0
    2.0095   -1.2049    1.9191 H   0  0  0  1  0  0  0  0  0  0  0  0
    3.2608   -2.5598    1.0225 O   0  0  0  1  0  0  0  0  0  0  0  0
    3.2438   -3.1707    0.2822 H   0  0  0  1  0  0  0  0  0  0  0  0
    2.0608   -0.8117   -0.2244 C   0  0  0  1  0  0  0  0  0  0  0  0
    2.4790   -1.2936   -1.0833 H   0  0  0  1  0  0  0  0  0  0  0  0
    2.7983    0.4201    0.0516 N   0  0  0  1  0  0  0  0  0  0  0  0
    3.8371    0.5789    0.9167 C   0  0  0  1  0  0  0  0  0  0  0  0
    4.2201   -0.2065    1.4808 H   0  0  0  1  0  0  0  0  0  0  0  0
    4.3164    1.7911    0.9852 N   0  0  0  1  0  0  0  0  0  0  0  0
    3.5377    2.4994    0.0833 C   0  0  0  1  0  0  0  0  0  0  0  0
    3.4977    3.8277   -0.3305 C   0  0  0  1  0  0  0  0  0  0  0  0
    4.3468    4.7873    0.1542 N   0  0  0  1  0  0  0  0  0  0  0  0
    4.3094    5.6997   -0.2017 H   0  0  0  1  0  0  0  0  0  0  0  0
    4.9916    4.5615    0.8568 H   0  0  0  1  0  0  0  0  0  0  0  0
    2.5979    4.2112   -1.2426 N   0  0  0  1  0  0  0  0  0  0  0  0
    1.7491    3.2858   -1.7171 C   0  0  0  1  0  0  0  0  0  0  0  0
    1.0624    3.6243   -2.4211 H   0  0  0  1  0  0  0  0  0  0  0  0
    1.6677    1.9973   -1.4092 N   0  0  0  1  0  0  0  0  0  0  0  0
    2.5879    1.6546   -0.5066 C   0  0  0  1  0  0  0  0  0  0  0  0
  1  2  1  0  0  0  0
  1  3  1  0  0  0  0
  1  4  1  0  0  0  0
  1  5  1  0  0  0  0
  5  6  1  0  0  0  0
  5  7  1  0  0  0  0
  5 10  1  0  0  0  0
  7  8  1  0  0  0  0
  7  9  2  0  0  0  0
 10 11  1  0  0  0  0
 10 12  1  0  0  0  0
 10 13  1  0  0  0  0
 13 14  1  0  0  0  0
 13 15  1  0  0  0  0
 13 16  1  0  0  0  0
 16 17  1  0  0  0  0
 16 21  1  0  0  0  0
 17 18  1  0  0  0  0
 17 19  1  0  0  0  0
 17 20  1  0  0  0  0
 21 22  1  0  0  0  0
 21 23  1  0  0  0  0
 21 24  1  0  0  0  0
 24 25  1  0  0  0  0
 24 26  1  0  0  0  0
 24 27  1  0  0  0  0
 26 35  1  0  0  0  0
 27 28  1  0  0  0  0
 27 29  1  0  0  0  0
 27 31  1  0  0  0  0
 29 30  1  0  0  0  0
 31 32  1  0  0  0  0
 31 33  1  0  0  0  0
 31 35  1  0  0  0  0
 33 34  1  0  0  0  0
 35 36  1  0  0  0  0
 35 37  1  0  0  0  0
 37 38  1  0  0  0  0
 37 50  1  0  0  0  0
 38 39  1  0  0  0  0
 38 40  2  0  0  0  0
 40 41  1  0  0  0  0
 41 42  1  0  0  0  0
 41 50  2  0  0  0  0
 42 43  1  0  0  0  0
 42 46  2  0  0  0  0
 43 44  1  0  0  0  0
 43 45  1  0  0  0  0
 46 47  1  0  0  0  0
 47 48  1  0  0  0  0
 47 49  2  0  0  0  0
 49 50  1  0  0  0  0
M  END
> <ConfClashScore>
0 

> <ConfOneFourInteractionScore>
-0.981575 

> <ConfScore>
0.0252315 

> <ConfScorePBest>
0.00840348 

> <ConfTolerance>
1.3089 

$$$$
SAM.****
  PyMOL2.4          3D                             0

 50 52  0  0  0  0  0  0  0  0999 V2000
   -3.0114   -2.4924   -4.5064 N   0  3  0  1  0  0  0  0  0  0  0  0
   -2.6305   -1.5242   -4.6471 H   0  0  0  1  0  0  0  0  0  0  0  0
   -3.6968   -2.7131   -5.2706 H   0  0  0  1  0  0  0  0  0  0  0  0
   -2.2231   -3.1856   -4.5317 H   0  0  0  1  0  0  0  0  0  0  0  0
   -3.6980   -2.5698   -3.1865 C   0  0  0  1  0  0  0  0  0  0  0  0
   -4.1490   -3.5342   -3.0802 H   0  0  0  1  0  0  0  0  0  0  0  0
   -4.7709   -1.5358   -3.1816 C   0  0  0  1  0  0  0  0  0  0  0  0
   -5.3647   -1.4331   -1.9624 O   0  5  0  1  0  0  0  0  0  0  0  0
   -5.0869   -0.8585   -4.1458 O   0  0  0  1  0  0  0  0  0  0  0  0
   -2.7294   -2.3523   -2.0400 C   0  0  0  1  0  0  0  0  0  0  0  0
   -1.9579   -3.0910   -2.1030 H   0  0  0  1  0  0  0  0  0  0  0  0
   -3.2618   -2.4695   -1.1193 H   0  0  0  1  0  0  0  0  0  0  0  0
   -2.0579   -0.9260   -2.0511 C   0  0  0  1  0  0  0  0  0  0  0  0
   -2.5329   -0.2845   -2.7636 H   0  0  0  1  0  0  0  0  0  0  0  0
   -1.0137   -0.9960   -2.2739 H   0  0  0  1  0  0  0  0  0  0  0  0
   -2.3192   -0.3327   -0.3784 S   0  3  0  1  0  0  0  0  0  0  0  0
   -1.2921    1.1500   -0.2789 C   0  0  0  1  0  0  0  0  0  0  0  0
   -1.0320    1.4712   -1.2659 H   0  0  0  1  0  0  0  0  0  0  0  0
   -0.4008    0.9300    0.2707 H   0  0  0  1  0  0  0  0  0  0  0  0
   -1.8351    1.9271    0.2173 H   0  0  0  1  0  0  0  0  0  0  0  0
   -1.3680   -1.4645    0.6526 C   0  0  0  1  0  0  0  0  0  0  0  0
   -1.9397   -2.3493    0.8405 H   0  0  0  1  0  0  0  0  0  0  0  0
   -1.1268   -0.9912    1.5814 H   0  0  0  1  0  0  0  0  0  0  0  0
   -0.0913   -1.8259   -0.0857 C   0  0  0  1  0  0  0  0  0  0  0  0
   -0.3323   -2.3993   -0.9564 H   0  0  0  1  0  0  0  0  0  0  0  0
    0.6126   -0.6309   -0.4639 O   0  0  0  1  0  0  0  0  0  0  0  0
    0.8394   -2.6362    0.8375 C   0  0  0  1  0  0  0  0  0  0  0  0
    0.4122   -2.7381    1.8132 H   0  0  0  1  0  0  0  0  0  0  0  0
    1.0941   -3.9311    0.2910 O   0  0  0  1  0  0  0  0  0  0  0  0
    1.6076   -3.8433   -0.5154 H   0  0  0  1  0  0  0  0  0  0  0  0
    2.1422   -1.7946    0.8912 C   0  0  0  1  0  0  0  0  0  0  0  0
    2.1746   -1.1847    1.7697 H   0  0  0  1  0  0  0  0  0  0  0  0
    3.3007   -2.6290    0.8470 O   0  0  0  1  0  0  0  0  0  0  0  0
    3.6105   -2.7946    1.7404 H   0  0  0  1  0  0  0  0  0  0  0  0
    2.0223   -0.9301   -0.3899 C   0  0  0  1  0  0  0  0  0  0  0  0
    2.3427   -1.4773   -1.2517 H   0  0  0  1  0  0  0  0  0  0  0  0
    2.8107    0.2954   -0.2688 N   0  0  0  1  0  0  0  0  0  0  0  0
    3.7815    0.7343   -1.1161 C   0  0  0  1  0  0  0  0  0  0  0  0
    4.0554    0.2106   -1.9719 H   0  0  0  1  0  0  0  0  0  0  0  0
    4.3428    1.8619   -0.7736 N   0  0  0  1  0  0  0  0  0  0  0  0
    3.6853    2.2096    0.3962 C   0  0  0  1  0  0  0  0  0  0  0  0
    3.7873    3.2740    1.2870 C   0  0  0  1  0  0  0  0  0  0  0  0
    4.6805    4.3003    1.1262 N   0  0  0  1  0  0  0  0  0  0  0  0
    4.6502    5.0747    1.7259 H   0  0  0  1  0  0  0  0  0  0  0  0
    5.3497    4.2600    0.4113 H   0  0  0  1  0  0  0  0  0  0  0  0
    2.9877    3.3212    2.3581 N   0  0  0  1  0  0  0  0  0  0  0  0
    2.1166    2.3158    2.5379 C   0  0  0  1  0  0  0  0  0  0  0  0
    1.5160    2.3871    3.3840 H   0  0  0  1  0  0  0  0  0  0  0  0
    1.9183    1.2431    1.7818 N   0  0  0  1  0  0  0  0  0  0  0  0
    2.7263    1.2407    0.7207 C   0  0  0  1  0  0  0  0  0  0  0  0
  1  2  1  0  0  0  0
  1  3  1  0  0  0  0
  1  4  1  0  0  0  0
  1  5  1  0  0  0  0
  5  6  1  0  0  0  0
  5  7  1  0  0  0  0
  5 10  1  0  0  0  0
  7  8  1  0  0  0  0
  7  9  2  0  0  0  0
 10 11  1  0  0  0  0
 10 12  1  0  0  0  0
 10 13  1  0  0  0  0
 13 14  1  0  0  0  0
 13 15  1  0  0  0  0
 13 16  1  0  0  0  0
 16 17  1  0  0  0  0
 16 21  1  0  0  0  0
 17 18  1  0  0  0  0
 17 19  1  0  0  0  0
 17 20  1  0  0  0  0
 21 22  1  0  0  0  0
 21 23  1  0  0  0  0
 21 24  1  0  0  0  0
 24 25  1  0  0  0  0
 24 26  1  0  0  0  0
 24 27  1  0  0  0  0
 26 35  1  0  0  0  0
 27 28  1  0  0  0  0
 27 29  1  0  0  0  0
 27 31  1  0  0  0  0
 29 30  1  0  0  0  0
 31 32  1  0  0  0  0
 31 33  1  0  0  0  0
 31 35  1  0  0  0  0
 33 34  1  0  0  0  0
 35 36  1  0  0  0  0
 35 37  1  0  0  0  0
 37 38  1  0  0  0  0
 37 50  1  0  0  0  0
 38 39  1  0  0  0  0
 38 40  2  0  0  0  0
 40 41  1  0  0  0  0
 41 42  1  0  0  0  0
 41 50  2  0  0  0  0
 42 43  1  0  0  0  0
 42 46  2  0  0  0  0
 43 44  1  0  0  0  0
 43 45  1  0  0  0  0
 46 47  1  0  0  0  0
 47 48  1  0  0  0  0
 47 49  2  0  0  0  0
 49 50  1  0  0  0  0
M  END
> <ConfClashScore>
0 

> <ConfOneFourInteractionScore>
-0.967249 

> <ConfScore>
0.0261594 

> <ConfScorePBest>
0.00830048 

> <ConfTolerance>
1.23761 

$$$$
SAM.****
  PyMOL2.4          3D                             0

 50 52  0  0  0  0  0  0  0  0999 V2000
   -4.0599    1.7134    3.8650 N   0  3  0  1  0  0  0  0  0  0  0  0
   -3.3203    2.4267    4.0808 H   0  0  0  1  0  0  0  0  0  0  0  0
   -4.8133    1.7588    4.5951 H   0  0  0  1  0  0  0  0  0  0  0  0
   -4.4741    1.9135    2.9211 H   0  0  0  1  0  0  0  0  0  0  0  0
   -3.4530    0.3528    3.8623 C   0  0  0  1  0  0  0  0  0  0  0  0
   -4.1909   -0.3716    3.5874 H   0  0  0  1  0  0  0  0  0  0  0  0
   -2.9528    0.0476    5.2322 C   0  0  0  1  0  0  0  0  0  0  0  0
   -2.6755   -1.2752    5.3833 O   0  5  0  1  0  0  0  0  0  0  0  0
   -2.8057    0.8738    6.1178 O   0  0  0  1  0  0  0  0  0  0  0  0
   -2.3490    0.3554    2.8341 C   0  0  0  1  0  0  0  0  0  0  0  0
   -1.8419   -0.5850    2.8928 H   0  0  0  1  0  0  0  0  0  0  0  0
   -1.6695    1.1438    3.0822 H   0  0  0  1  0  0  0  0  0  0  0  0
   -2.7978    0.5587    1.3876 C   0  0  0  1  0  0  0  0  0  0  0  0
   -3.3232    1.4876    1.3115 H   0  0  0  1  0  0  0  0  0  0  0  0
   -3.4480   -0.2435    1.1069 H   0  0  0  1  0  0  0  0  0  0  0  0
   -1.3912    0.5884    0.2785 S   0  3  0  1  0  0  0  0  0  0  0  0
   -2.0296   -0.0194   -1.2827 C   0  0  0  1  0  0  0  0  0  0  0  0
   -2.8875   -0.6332   -1.1031 H   0  0  0  1  0  0  0  0  0  0  0  0
   -1.2754   -0.5965   -1.7757 H   0  0  0  1  0  0  0  0  0  0  0  0
   -2.3069    0.8086   -1.9010 H   0  0  0  1  0  0  0  0  0  0  0  0
   -0.8810   -1.0376    0.8814 C   0  0  0  1  0  0  0  0  0  0  0  0
   -1.7629   -1.5977    1.1125 H   0  0  0  1  0  0  0  0  0  0  0  0
   -0.3045   -0.8957    1.7716 H   0  0  0  1  0  0  0  0  0  0  0  0
   -0.0523   -1.8470   -0.0901 C   0  0  0  1  0  0  0  0  0  0  0  0
   -0.6963   -2.4647   -0.6805 H   0  0  0  1  0  0  0  0  0  0  0  0
    0.7477   -0.9715   -0.9418 O   0  0  0  1  0  0  0  0  0  0  0  0
    0.9674   -2.6858    0.6455 C   0  0  0  1  0  0  0  0  0  0  0  0
    0.5921   -2.9951    1.5986 H   0  0  0  1  0  0  0  0  0  0  0  0
    1.3301   -3.8358   -0.1201 O   0  0  0  1  0  0  0  0  0  0  0  0
    0.8948   -4.6115    0.2409 H   0  0  0  1  0  0  0  0  0  0  0  0
    2.1619   -1.7364    0.8083 C   0  0  0  1  0  0  0  0  0  0  0  0
    2.0864   -1.1738    1.7153 H   0  0  0  1  0  0  0  0  0  0  0  0
    3.3962   -2.4550    0.7945 O   0  0  0  1  0  0  0  0  0  0  0  0
    3.5706   -2.8094    1.6695 H   0  0  0  1  0  0  0  0  0  0  0  0
    2.0389   -0.8233   -0.4217 C   0  0  0  1  0  0  0  0  0  0  0  0
    2.7617   -1.1065   -1.1581 H   0  0  0  1  0  0  0  0  0  0  0  0
    2.2599    0.5693   -0.0306 N   0  0  0  1  0  0  0  0  0  0  0  0
    2.3179    1.0711    1.2333 C   0  0  0  1  0  0  0  0  0  0  0  0
    2.1363    0.4882    2.0752 H   0  0  0  1  0  0  0  0  0  0  0  0
    2.6186    2.3391    1.3091 N   0  0  0  1  0  0  0  0  0  0  0  0
    2.7839    2.7132   -0.0154 C   0  0  0  1  0  0  0  0  0  0  0  0
    3.0973    3.9094   -0.6540 C   0  0  0  1  0  0  0  0  0  0  0  0
    3.3205    5.0457    0.0678 N   0  0  0  1  0  0  0  0  0  0  0  0
    3.7097    5.8334   -0.3663 H   0  0  0  1  0  0  0  0  0  0  0  0
    3.0914    5.0741    1.0202 H   0  0  0  1  0  0  0  0  0  0  0  0
    3.1810    3.9467   -1.9882 N   0  0  0  1  0  0  0  0  0  0  0  0
    2.9412    2.8129   -2.6658 C   0  0  0  1  0  0  0  0  0  0  0  0
    3.0120    2.8840   -3.7009 H   0  0  0  1  0  0  0  0  0  0  0  0
    2.6258    1.6133   -2.1930 N   0  0  0  1  0  0  0  0  0  0  0  0
    2.5640    1.6173   -0.8606 C   0  0  0  1  0  0  0  0  0  0  0  0
  1  2  1  0  0  0  0
  1  3  1  0  0  0  0
  1  4  1  0  0  0  0
  1  5  1  0  0  0  0
  5  6  1  0  0  0  0
  5  7  1  0  0  0  0
  5 10  1  0  0  0  0
  7  8  1  0  0  0  0
  7  9  2  0  0  0  0
 10 11  1  0  0  0  0
 10 12  1  0  0  0  0
 10 13  1  0  0  0  0
 13 14  1  0  0  0  0
 13 15  1  0  0  0  0
 13 16  1  0  0  0  0
 16 17  1  0  0  0  0
 16 21  1  0  0  0  0
 17 18  1  0  0  0  0
 17 19  1  0  0  0  0
 17 20  1  0  0  0  0
 21 22  1  0  0  0  0
 21 23  1  0  0  0  0
 21 24  1  0  0  0  0
 24 25  1  0  0  0  0
 24 26  1  0  0  0  0
 24 27  1  0  0  0  0
 26 35  1  0  0  0  0
 27 28  1  0  0  0  0
 27 29  1  0  0  0  0
 27 31  1  0  0  0  0
 29 30  1  0  0  0  0
 31 32  1  0  0  0  0
 31 33  1  0  0  0  0
 31 35  1  0  0  0  0
 33 34  1  0  0  0  0
 35 36  1  0  0  0  0
 35 37  1  0  0  0  0
 37 38  1  0  0  0  0
 37 50  1  0  0  0  0
 38 39  1  0  0  0  0
 38 40  2  0  0  0  0
 40 41  1  0  0  0  0
 41 42  1  0  0  0  0
 41 50  2  0  0  0  0
 42 43  1  0  0  0  0
 42 46  2  0  0  0  0
 43 44  1  0  0  0  0
 43 45  1  0  0  0  0
 46 47  1  0  0  0  0
 47 48  1  0  0  0  0
 47 49  2  0  0  0  0
 49 50  1  0  0  0  0
M  END
> <ConfClashScore>
0 

> <ConfOneFourInteractionScore>
-0.986101 

> <ConfScore>
0.0273941 

> <ConfScorePBest>
0.00819748 

> <ConfTolerance>
1.27862 

$$$$
SAM.****
  PyMOL2.4          3D                             0

 50 52  0  0  0  0  0  0  0  0999 V2000
   -5.7064   -2.0715    0.2360 N   0  3  0  1  0  0  0  0  0  0  0  0
   -6.7356   -2.2628    0.3172 H   0  0  0  1  0  0  0  0  0  0  0  0
   -5.1677   -2.9142    0.5555 H   0  0  0  1  0  0  0  0  0  0  0  0
   -5.4676   -1.8615   -0.7647 H   0  0  0  1  0  0  0  0  0  0  0  0
   -5.3492   -0.9022    1.0872 C   0  0  0  1  0  0  0  0  0  0  0  0
   -5.5445   -1.1288    2.1145 H   0  0  0  1  0  0  0  0  0  0  0  0
   -6.1742    0.2688    0.6769 C   0  0  0  1  0  0  0  0  0  0  0  0
   -6.0109    1.3205    1.5236 O   0  5  0  1  0  0  0  0  0  0  0  0
   -6.9094    0.2933   -0.2964 O   0  0  0  1  0  0  0  0  0  0  0  0
   -3.8846   -0.5436    0.9249 C   0  0  0  1  0  0  0  0  0  0  0  0
   -3.2940   -1.3304    1.3457 H   0  0  0  1  0  0  0  0  0  0  0  0
   -3.6973    0.3665    1.4556 H   0  0  0  1  0  0  0  0  0  0  0  0
   -3.4686   -0.3509   -0.5234 C   0  0  0  1  0  0  0  0  0  0  0  0
   -4.1338    0.3462   -0.9888 H   0  0  0  1  0  0  0  0  0  0  0  0
   -3.5238   -1.2910   -1.0315 H   0  0  0  1  0  0  0  0  0  0  0  0
   -1.7859    0.2789   -0.6316 S   0  3  0  1  0  0  0  0  0  0  0  0
   -1.3602   -0.3282   -2.2628 C   0  0  0  1  0  0  0  0  0  0  0  0
   -0.3917    0.0344   -2.5373 H   0  0  0  1  0  0  0  0  0  0  0  0
   -2.0839    0.0167   -2.9715 H   0  0  0  1  0  0  0  0  0  0  0  0
   -1.3509   -1.3981   -2.2536 H   0  0  0  1  0  0  0  0  0  0  0  0
   -0.9050   -0.8743    0.4461 C   0  0  0  1  0  0  0  0  0  0  0  0
   -1.6313   -1.4412    0.9901 H   0  0  0  1  0  0  0  0  0  0  0  0
   -0.3125   -0.3031    1.1299 H   0  0  0  1  0  0  0  0  0  0  0  0
    0.0072   -1.8437   -0.2679 C   0  0  0  1  0  0  0  0  0  0  0  0
   -0.5798   -2.5281   -0.8441 H   0  0  0  1  0  0  0  0  0  0  0  0
    0.9256   -1.1405   -1.1088 O   0  0  0  1  0  0  0  0  0  0  0  0
    0.8719   -2.5938    0.7300 C   0  0  0  1  0  0  0  0  0  0  0  0
    0.4191   -2.5922    1.6995 H   0  0  0  1  0  0  0  0  0  0  0  0
    1.0820   -3.9409    0.3041 O   0  0  0  1  0  0  0  0  0  0  0  0
    1.7870   -4.3348    0.8232 H   0  0  0  1  0  0  0  0  0  0  0  0
    2.1817   -1.8257    0.7477 C   0  0  0  1  0  0  0  0  0  0  0  0
    2.3742   -1.4284    1.7224 H   0  0  0  1  0  0  0  0  0  0  0  0
    3.2667   -2.6677    0.3530 O   0  0  0  1  0  0  0  0  0  0  0  0
    3.2840   -3.4500    0.9092 H   0  0  0  1  0  0  0  0  0  0  0  0
    1.9802   -0.7214   -0.2442 C   0  0  0  1  0  0  0  0  0  0  0  0
    2.8767   -0.5610   -0.8058 H   0  0  0  1  0  0  0  0  0  0  0  0
    1.6065    0.5184    0.4467 N   0  0  0  1  0  0  0  0  0  0  0  0
    1.5716    0.7846    1.7811 C   0  0  0  1  0  0  0  0  0  0  0  0
    1.8343    0.0795    2.4990 H   0  0  0  1  0  0  0  0  0  0  0  0
    1.1836    1.9916    2.0918 N   0  0  0  1  0  0  0  0  0  0  0  0
    0.9480    2.5838    0.8609 C   0  0  0  1  0  0  0  0  0  0  0  0
    0.5092    3.8414    0.4571 C   0  0  0  1  0  0  0  0  0  0  0  0
    0.1979    4.8429    1.3386 N   0  0  0  1  0  0  0  0  0  0  0  0
    0.3599    4.7198    2.2972 H   0  0  0  1  0  0  0  0  0  0  0  0
   -0.1866    5.6824    1.0104 H   0  0  0  1  0  0  0  0  0  0  0  0
    0.3767    4.1105   -0.8462 N   0  0  0  1  0  0  0  0  0  0  0  0
    0.6641    3.1351   -1.7226 C   0  0  0  1  0  0  0  0  0  0  0  0
    0.5445    3.3823   -2.7258 H   0  0  0  1  0  0  0  0  0  0  0  0
    1.0802    1.8979   -1.4819 N   0  0  0  1  0  0  0  0  0  0  0  0
    1.2097    1.6750   -0.1733 C   0  0  0  1  0  0  0  0  0  0  0  0
  1  2  1  0  0  0  0
  1  3  1  0  0  0  0
  1  4  1  0  0  0  0
  1  5  1  0  0  0  0
  5  6  1  0  0  0  0
  5  7  1  0  0  0  0
  5 10  1  0  0  0  0
  7  8  1  0  0  0  0
  7  9  2  0  0  0  0
 10 11  1  0  0  0  0
 10 12  1  0  0  0  0
 10 13  1  0  0  0  0
 13 14  1  0  0  0  0
 13 15  1  0  0  0  0
 13 16  1  0  0  0  0
 16 17  1  0  0  0  0
 16 21  1  0  0  0  0
 17 18  1  0  0  0  0
 17 19  1  0  0  0  0
 17 20  1  0  0  0  0
 21 22  1  0  0  0  0
 21 23  1  0  0  0  0
 21 24  1  0  0  0  0
 24 25  1  0  0  0  0
 24 26  1  0  0  0  0
 24 27  1  0  0  0  0
 26 35  1  0  0  0  0
 27 28  1  0  0  0  0
 27 29  1  0  0  0  0
 27 31  1  0  0  0  0
 29 30  1  0  0  0  0
 31 32  1  0  0  0  0
 31 33  1  0  0  0  0
 31 35  1  0  0  0  0
 33 34  1  0  0  0  0
 35 36  1  0  0  0  0
 35 37  1  0  0  0  0
 37 38  1  0  0  0  0
 37 50  1  0  0  0  0
 38 39  1  0  0  0  0
 38 40  2  0  0  0  0
 40 41  1  0  0  0  0
 41 42  1  0  0  0  0
 41 50  2  0  0  0  0
 42 43  1  0  0  0  0
 42 46  2  0  0  0  0
 43 44  1  0  0  0  0
 43 45  1  0  0  0  0
 46 47  1  0  0  0  0
 47 48  1  0  0  0  0
 47 49  2  0  0  0  0
 49 50  1  0  0  0  0
M  END
> <ConfClashScore>
0 

> <ConfOneFourInteractionScore>
-0.986101 

> <ConfScore>
0.0277901 

> <ConfScorePBest>
0.00809448 

> <ConfTolerance>
1.39831 

$$$$
SAM.****
  PyMOL2.4          3D                             0

 50 52  0  0  0  0  0  0  0  0999 V2000
   -4.5461   -2.6051    5.7277 N   0  3  0  1  0  0  0  0  0  0  0  0
   -5.1624   -1.8793    6.1702 H   0  0  0  1  0  0  0  0  0  0  0  0
   -3.7278   -2.7995    6.3563 H   0  0  0  1  0  0  0  0  0  0  0  0
   -5.0946   -3.4887    5.5831 H   0  0  0  1  0  0  0  0  0  0  0  0
   -4.0543   -2.1056    4.4131 C   0  0  0  1  0  0  0  0  0  0  0  0
   -4.0888   -1.0363    4.4351 H   0  0  0  1  0  0  0  0  0  0  0  0
   -4.9382   -2.5604    3.3032 C   0  0  0  1  0  0  0  0  0  0  0  0
   -5.0341   -1.6447    2.3022 O   0  5  0  1  0  0  0  0  0  0  0  0
   -5.5014   -3.6424    3.3186 O   0  0  0  1  0  0  0  0  0  0  0  0
   -2.6000   -2.5116    4.2309 C   0  0  0  1  0  0  0  0  0  0  0  0
   -2.5426   -3.5754    4.1310 H   0  0  0  1  0  0  0  0  0  0  0  0
   -2.0394   -2.2026    5.0883 H   0  0  0  1  0  0  0  0  0  0  0  0
   -2.0184   -1.8703    3.0057 C   0  0  0  1  0  0  0  0  0  0  0  0
   -2.7361   -2.1938    2.2810 H   0  0  0  1  0  0  0  0  0  0  0  0
   -1.1262   -2.4530    2.9095 H   0  0  0  1  0  0  0  0  0  0  0  0
   -1.4676   -0.3580    2.2188 S   0  3  0  1  0  0  0  0  0  0  0  0
   -2.9646    0.3943    1.5805 C   0  0  0  1  0  0  0  0  0  0  0  0
   -2.9684    1.4380    1.8162 H   0  0  0  1  0  0  0  0  0  0  0  0
   -3.8171   -0.0748    2.0258 H   0  0  0  1  0  0  0  0  0  0  0  0
   -3.0019    0.2686    0.5186 H   0  0  0  1  0  0  0  0  0  0  0  0
   -1.1161   -1.2365    0.7757 C   0  0  0  1  0  0  0  0  0  0  0  0
   -1.6233   -0.6173    0.0656 H   0  0  0  1  0  0  0  0  0  0  0  0
   -1.6959   -2.1166    0.9606 H   0  0  0  1  0  0  0  0  0  0  0  0
   -0.0598   -1.8207   -0.1171 C   0  0  0  1  0  0  0  0  0  0  0  0
   -0.5246   -2.3878   -0.8964 H   0  0  0  1  0  0  0  0  0  0  0  0
    0.7516   -0.7740   -0.6792 O   0  0  0  1  0  0  0  0  0  0  0  0
    0.8972   -2.7207    0.7029 C   0  0  0  1  0  0  0  0  0  0  0  0
    0.4494   -3.0165    1.6286 H   0  0  0  1  0  0  0  0  0  0  0  0
    1.2721   -3.8841   -0.0391 O   0  0  0  1  0  0  0  0  0  0  0  0
    0.6710   -4.6035    0.1674 H   0  0  0  1  0  0  0  0  0  0  0  0
    2.0922   -1.8139    0.9386 C   0  0  0  1  0  0  0  0  0  0  0  0
    1.9634   -1.2280    1.8247 H   0  0  0  1  0  0  0  0  0  0  0  0
    3.3011   -2.5694    1.0379 O   0  0  0  1  0  0  0  0  0  0  0  0
    4.0540   -1.9744    1.0101 H   0  0  0  1  0  0  0  0  0  0  0  0
    2.0936   -0.9276   -0.3170 C   0  0  0  1  0  0  0  0  0  0  0  0
    2.6401   -1.4008   -1.1058 H   0  0  0  1  0  0  0  0  0  0  0  0
    2.6927    0.3740   -0.0203 N   0  0  0  1  0  0  0  0  0  0  0  0
    2.0337    1.5464    0.1895 C   0  0  0  1  0  0  0  0  0  0  0  0
    0.9963    1.6041    0.2364 H   0  0  0  1  0  0  0  0  0  0  0  0
    2.8017    2.5928    0.3274 N   0  0  0  1  0  0  0  0  0  0  0  0
    4.0817    2.0739    0.2083 C   0  0  0  1  0  0  0  0  0  0  0  0
    5.3592    2.6248    0.2439 C   0  0  0  1  0  0  0  0  0  0  0  0
    5.5342    3.9643    0.4361 N   0  0  0  1  0  0  0  0  0  0  0  0
    6.4387    4.3383    0.4852 H   0  0  0  1  0  0  0  0  0  0  0  0
    4.7553    4.5524    0.5250 H   0  0  0  1  0  0  0  0  0  0  0  0
    6.4267    1.8343    0.0884 N   0  0  0  1  0  0  0  0  0  0  0  0
    6.2156    0.5239   -0.1127 C   0  0  0  1  0  0  0  0  0  0  0  0
    7.0704   -0.0561   -0.2332 H   0  0  0  1  0  0  0  0  0  0  0  0
    5.0632   -0.1314   -0.1785 N   0  0  0  1  0  0  0  0  0  0  0  0
    4.0267    0.6904   -0.0075 C   0  0  0  1  0  0  0  0  0  0  0  0
  1  2  1  0  0  0  0
  1  3  1  0  0  0  0
  1  4  1  0  0  0  0
  1  5  1  0  0  0  0
  5  6  1  0  0  0  0
  5  7  1  0  0  0  0
  5 10  1  0  0  0  0
  7  8  1  0  0  0  0
  7  9  2  0  0  0  0
 10 11  1  0  0  0  0
 10 12  1  0  0  0  0
 10 13  1  0  0  0  0
 13 14  1  0  0  0  0
 13 15  1  0  0  0  0
 13 16  1  0  0  0  0
 16 17  1  0  0  0  0
 16 21  1  0  0  0  0
 17 18  1  0  0  0  0
 17 19  1  0  0  0  0
 17 20  1  0  0  0  0
 21 22  1  0  0  0  0
 21 23  1  0  0  0  0
 21 24  1  0  0  0  0
 24 25  1  0  0  0  0
 24 26  1  0  0  0  0
 24 27  1  0  0  0  0
 26 35  1  0  0  0  0
 27 28  1  0  0  0  0
 27 29  1  0  0  0  0
 27 31  1  0  0  0  0
 29 30  1  0  0  0  0
 31 32  1  0  0  0  0
 31 33  1  0  0  0  0
 31 35  1  0  0  0  0
 33 34  1  0  0  0  0
 35 36  1  0  0  0  0
 35 37  1  0  0  0  0
 37 38  1  0  0  0  0
 37 50  1  0  0  0  0
 38 39  1  0  0  0  0
 38 40  2  0  0  0  0
 40 41  1  0  0  0  0
 41 42  1  0  0  0  0
 41 50  2  0  0  0  0
 42 43  1  0  0  0  0
 42 46  2  0  0  0  0
 43 44  1  0  0  0  0
 43 45  1  0  0  0  0
 46 47  1  0  0  0  0
 47 48  1  0  0  0  0
 47 49  2  0  0  0  0
 49 50  1  0  0  0  0
M  END
> <ConfClashScore>
0.000346928 

> <ConfOneFourInteractionScore>
-0.982901 

> <ConfScore>
0.0283294 

> <ConfScorePBest>
0.00799148 

> <ConfTolerance>
1.24421 

$$$$
SAM.****
  PyMOL2.4          3D                             0

 50 52  0  0  0  0  0  0  0  0999 V2000
   -3.8545    3.9855    2.7783 N   0  3  0  1  0  0  0  0  0  0  0  0
   -3.4052    4.8611    3.1443 H   0  0  0  1  0  0  0  0  0  0  0  0
   -4.2454    3.4316    3.5801 H   0  0  0  1  0  0  0  0  0  0  0  0
   -4.6295    4.2399    2.1172 H   0  0  0  1  0  0  0  0  0  0  0  0
   -2.8375    3.1678    2.0595 C   0  0  0  1  0  0  0  0  0  0  0  0
   -1.8726    3.4207    2.4468 H   0  0  0  1  0  0  0  0  0  0  0  0
   -2.8600    3.5514    0.6199 C   0  0  0  1  0  0  0  0  0  0  0  0
   -1.6169    3.5126    0.0696 O   0  5  0  1  0  0  0  0  0  0  0  0
   -3.8634    3.8637    0.0002 O   0  0  0  1  0  0  0  0  0  0  0  0
   -3.0358    1.6714    2.2493 C   0  0  0  1  0  0  0  0  0  0  0  0
   -4.0271    1.4074    1.9451 H   0  0  0  1  0  0  0  0  0  0  0  0
   -2.9026    1.4281    3.2828 H   0  0  0  1  0  0  0  0  0  0  0  0
   -2.0344    0.8860    1.4196 C   0  0  0  1  0  0  0  0  0  0  0  0
   -1.0467    1.2560    1.5998 H   0  0  0  1  0  0  0  0  0  0  0  0
   -2.2691    0.9856    0.3804 H   0  0  0  1  0  0  0  0  0  0  0  0
   -2.1327   -0.8517    1.9036 S   0  3  0  1  0  0  0  0  0  0  0  0
   -0.8097   -0.9118    3.1288 C   0  0  0  1  0  0  0  0  0  0  0  0
   -0.7552   -1.8949    3.5477 H   0  0  0  1  0  0  0  0  0  0  0  0
   -1.0109   -0.2041    3.9057 H   0  0  0  1  0  0  0  0  0  0  0  0
    0.1217   -0.6721    2.6597 H   0  0  0  1  0  0  0  0  0  0  0  0
   -1.3320   -1.5831    0.5614 C   0  0  0  1  0  0  0  0  0  0  0  0
   -1.8521   -1.0986   -0.2384 H   0  0  0  1  0  0  0  0  0  0  0  0
   -1.6925   -2.5850    0.6668 H   0  0  0  1  0  0  0  0  0  0  0  0
   -0.0199   -1.8639   -0.1309 C   0  0  0  1  0  0  0  0  0  0  0  0
   -0.2025   -2.4005   -1.0385 H   0  0  0  1  0  0  0  0  0  0  0  0
    0.6579   -0.6291   -0.4183 O   0  0  0  1  0  0  0  0  0  0  0  0
    0.8971   -2.6887    0.7931 C   0  0  0  1  0  0  0  0  0  0  0  0
    0.4315   -2.8531    1.7423 H   0  0  0  1  0  0  0  0  0  0  0  0
    1.2202   -3.9456    0.1965 O   0  0  0  1  0  0  0  0  0  0  0  0
    0.4116   -4.4236   -0.0016 H   0  0  0  1  0  0  0  0  0  0  0  0
    2.1663   -1.8090    0.9466 C   0  0  0  1  0  0  0  0  0  0  0  0
    2.1391   -1.2431    1.8544 H   0  0  0  1  0  0  0  0  0  0  0  0
    3.3539   -2.6020    0.9146 O   0  0  0  1  0  0  0  0  0  0  0  0
    4.1204   -2.0361    1.0324 H   0  0  0  1  0  0  0  0  0  0  0  0
    2.0726   -0.8857   -0.2950 C   0  0  0  1  0  0  0  0  0  0  0  0
    2.4492   -1.3784   -1.1670 H   0  0  0  1  0  0  0  0  0  0  0  0
    2.8126    0.3580   -0.0788 N   0  0  0  1  0  0  0  0  0  0  0  0
    2.2585    1.5296    0.3374 C   0  0  0  1  0  0  0  0  0  0  0  0
    1.2438    1.6259    0.5439 H   0  0  0  1  0  0  0  0  0  0  0  0
    3.0966    2.5230    0.4577 N   0  0  0  1  0  0  0  0  0  0  0  0
    4.3143    1.9654    0.1002 C   0  0  0  1  0  0  0  0  0  0  0  0
    5.6129    2.4553   -0.0033 C   0  0  0  1  0  0  0  0  0  0  0  0
    5.8896    3.7595    0.2868 N   0  0  0  1  0  0  0  0  0  0  0  0
    5.1579    4.3957    0.4293 H   0  0  0  1  0  0  0  0  0  0  0  0
    6.8201    4.0601    0.3527 H   0  0  0  1  0  0  0  0  0  0  0  0
    6.6000    1.6404   -0.3909 N   0  0  0  1  0  0  0  0  0  0  0  0
    6.2879    0.3676   -0.6816 C   0  0  0  1  0  0  0  0  0  0  0  0
    7.0820   -0.2326   -0.9829 H   0  0  0  1  0  0  0  0  0  0  0  0
    5.1027   -0.2283   -0.6365 N   0  0  0  1  0  0  0  0  0  0  0  0
    4.1502    0.6147   -0.2354 C   0  0  0  1  0  0  0  0  0  0  0  0
  1  2  1  0  0  0  0
  1  3  1  0  0  0  0
  1  4  1  0  0  0  0
  1  5  1  0  0  0  0
  5  6  1  0  0  0  0
  5  7  1  0  0  0  0
  5 10  1  0  0  0  0
  7  8  1  0  0  0  0
  7  9  2  0  0  0  0
 10 11  1  0  0  0  0
 10 12  1  0  0  0  0
 10 13  1  0  0  0  0
 13 14  1  0  0  0  0
 13 15  1  0  0  0  0
 13 16  1  0  0  0  0
 16 17  1  0  0  0  0
 16 21  1  0  0  0  0
 17 18  1  0  0  0  0
 17 19  1  0  0  0  0
 17 20  1  0  0  0  0
 21 22  1  0  0  0  0
 21 23  1  0  0  0  0
 21 24  1  0  0  0  0
 24 25  1  0  0  0  0
 24 26  1  0  0  0  0
 24 27  1  0  0  0  0
 26 35  1  0  0  0  0
 27 28  1  0  0  0  0
 27 29  1  0  0  0  0
 27 31  1  0  0  0  0
 29 30  1  0  0  0  0
 31 32  1  0  0  0  0
 31 33  1  0  0  0  0
 31 35  1  0  0  0  0
 33 34  1  0  0  0  0
 35 36  1  0  0  0  0
 35 37  1  0  0  0  0
 37 38  1  0  0  0  0
 37 50  1  0  0  0  0
 38 39  1  0  0  0  0
 38 40  2  0  0  0  0
 40 41  1  0  0  0  0
 41 42  1  0  0  0  0
 41 50  2  0  0  0  0
 42 43  1  0  0  0  0
 42 46  2  0  0  0  0
 43 44  1  0  0  0  0
 43 45  1  0  0  0  0
 46 47  1  0  0  0  0
 47 48  1  0  0  0  0
 47 49  2  0  0  0  0
 49 50  1  0  0  0  0
M  END
> <ConfClashScore>
0 

> <ConfOneFourInteractionScore>
-0.993249 

> <ConfScore>
0.0284948 

> <ConfScorePBest>
0.00788848 

> <ConfTolerance>
1.24931 

$$$$
SAM.****
  PyMOL2.4          3D                             0

 50 52  0  0  0  0  0  0  0  0999 V2000
    1.2418   -1.1108   -4.0928 N   0  3  0  1  0  0  0  0  0  0  0  0
    1.9813   -0.8675   -4.7974 H   0  0  0  1  0  0  0  0  0  0  0  0
    0.9461   -2.1094   -4.2269 H   0  0  0  1  0  0  0  0  0  0  0  0
    1.6272   -0.9864   -3.1241 H   0  0  0  1  0  0  0  0  0  0  0  0
    0.0642   -0.2151   -4.2777 C   0  0  0  1  0  0  0  0  0  0  0  0
   -0.4474   -0.5259   -5.1646 H   0  0  0  1  0  0  0  0  0  0  0  0
    0.5071    1.1926   -4.4838 C   0  0  0  1  0  0  0  0  0  0  0  0
   -0.5498    2.0381   -4.6162 O   0  5  0  1  0  0  0  0  0  0  0  0
    1.6713    1.5545   -4.5300 O   0  0  0  1  0  0  0  0  0  0  0  0
   -0.8885   -0.4086   -3.1138 C   0  0  0  1  0  0  0  0  0  0  0  0
   -1.7607    0.1866   -3.2867 H   0  0  0  1  0  0  0  0  0  0  0  0
   -0.4027   -0.0790   -2.2192 H   0  0  0  1  0  0  0  0  0  0  0  0
   -1.3158   -1.8356   -2.9252 C   0  0  0  1  0  0  0  0  0  0  0  0
   -0.4279   -2.4278   -2.8489 H   0  0  0  1  0  0  0  0  0  0  0  0
   -1.8632   -2.1235   -3.7984 H   0  0  0  1  0  0  0  0  0  0  0  0
   -2.3359   -2.2156   -1.5050 S   0  3  0  1  0  0  0  0  0  0  0  0
   -3.6013   -0.9630   -1.6896 C   0  0  0  1  0  0  0  0  0  0  0  0
   -4.5610   -1.4317   -1.7547 H   0  0  0  1  0  0  0  0  0  0  0  0
   -3.4184   -0.4001   -2.5810 H   0  0  0  1  0  0  0  0  0  0  0  0
   -3.5810   -0.3085   -0.8434 H   0  0  0  1  0  0  0  0  0  0  0  0
   -1.3698   -1.6588   -0.0934 C   0  0  0  1  0  0  0  0  0  0  0  0
   -1.7041   -2.1572    0.7925 H   0  0  0  1  0  0  0  0  0  0  0  0
   -1.4826   -0.6017    0.0274 H   0  0  0  1  0  0  0  0  0  0  0  0
    0.0813   -1.9912   -0.3488 C   0  0  0  1  0  0  0  0  0  0  0  0
    0.1459   -2.7727   -1.0768 H   0  0  0  1  0  0  0  0  0  0  0  0
    0.8052   -0.8130   -0.7970 O   0  0  0  1  0  0  0  0  0  0  0  0
    0.7750   -2.4053    0.9482 C   0  0  0  1  0  0  0  0  0  0  0  0
    0.3558   -1.9006    1.7935 H   0  0  0  1  0  0  0  0  0  0  0  0
    0.7012   -3.8172    1.1510 O   0  0  0  1  0  0  0  0  0  0  0  0
    1.4666   -4.2385    0.7533 H   0  0  0  1  0  0  0  0  0  0  0  0
    2.1912   -1.9603    0.6889 C   0  0  0  1  0  0  0  0  0  0  0  0
    2.7247   -1.8132    1.6047 H   0  0  0  1  0  0  0  0  0  0  0  0
    2.8894   -2.9054   -0.1232 O   0  0  0  1  0  0  0  0  0  0  0  0
    3.7618   -3.0622    0.2457 H   0  0  0  1  0  0  0  0  0  0  0  0
    1.9896   -0.6476   -0.0462 C   0  0  0  1  0  0  0  0  0  0  0  0
    2.8183   -0.4509   -0.6939 H   0  0  0  1  0  0  0  0  0  0  0  0
    1.8417    0.4528    0.9050 N   0  0  0  1  0  0  0  0  0  0  0  0
    0.6775    0.9353    1.4195 C   0  0  0  1  0  0  0  0  0  0  0  0
   -0.2437    0.4907    1.2313 H   0  0  0  1  0  0  0  0  0  0  0  0
    0.8043    1.9979    2.1669 N   0  0  0  1  0  0  0  0  0  0  0  0
    2.1692    2.2402    2.1577 C   0  0  0  1  0  0  0  0  0  0  0  0
    2.9866    3.2091    2.7321 C   0  0  0  1  0  0  0  0  0  0  0  0
    2.5973    4.2797    3.5424 N   0  0  0  1  0  0  0  0  0  0  0  0
    1.6609    4.3716    3.8166 H   0  0  0  1  0  0  0  0  0  0  0  0
    3.2608    4.9384    3.8362 H   0  0  0  1  0  0  0  0  0  0  0  0
    4.3073    3.1700    2.5251 N   0  0  0  1  0  0  0  0  0  0  0  0
    4.7938    2.1897    1.7478 C   0  0  0  1  0  0  0  0  0  0  0  0
    5.8243    2.1962    1.6078 H   0  0  0  1  0  0  0  0  0  0  0  0
    4.1372    1.2132    1.1337 N   0  0  0  1  0  0  0  0  0  0  0  0
    2.8272    1.2821    1.3749 C   0  0  0  1  0  0  0  0  0  0  0  0
  1  2  1  0  0  0  0
  1  3  1  0  0  0  0
  1  4  1  0  0  0  0
  1  5  1  0  0  0  0
  5  6  1  0  0  0  0
  5  7  1  0  0  0  0
  5 10  1  0  0  0  0
  7  8  1  0  0  0  0
  7  9  2  0  0  0  0
 10 11  1  0  0  0  0
 10 12  1  0  0  0  0
 10 13  1  0  0  0  0
 13 14  1  0  0  0  0
 13 15  1  0  0  0  0
 13 16  1  0  0  0  0
 16 17  1  0  0  0  0
 16 21  1  0  0  0  0
 17 18  1  0  0  0  0
 17 19  1  0  0  0  0
 17 20  1  0  0  0  0
 21 22  1  0  0  0  0
 21 23  1  0  0  0  0
 21 24  1  0  0  0  0
 24 25  1  0  0  0  0
 24 26  1  0  0  0  0
 24 27  1  0  0  0  0
 26 35  1  0  0  0  0
 27 28  1  0  0  0  0
 27 29  1  0  0  0  0
 27 31  1  0  0  0  0
 29 30  1  0  0  0  0
 31 32  1  0  0  0  0
 31 33  1  0  0  0  0
 31 35  1  0  0  0  0
 33 34  1  0  0  0  0
 35 36  1  0  0  0  0
 35 37  1  0  0  0  0
 37 38  1  0  0  0  0
 37 50  1  0  0  0  0
 38 39  1  0  0  0  0
 38 40  2  0  0  0  0
 40 41  1  0  0  0  0
 41 42  1  0  0  0  0
 41 50  2  0  0  0  0
 42 43  1  0  0  0  0
 42 46  2  0  0  0  0
 43 44  1  0  0  0  0
 43 45  1  0  0  0  0
 46 47  1  0  0  0  0
 47 48  1  0  0  0  0
 47 49  2  0  0  0  0
 49 50  1  0  0  0  0
M  END
> <ConfClashScore>
0 

> <ConfOneFourInteractionScore>
-0.981428 

> <ConfScore>
0.0312604 

> <ConfScorePBest>
0.00778548 

> <ConfTolerance>
1.462 

$$$$
SAM.****
  PyMOL2.4          3D                             0

 50 52  0  0  0  0  0  0  0  0999 V2000
   -5.8038   -3.8432    2.8367 N   0  3  0  1  0  0  0  0  0  0  0  0
   -6.5788   -4.5479    2.7646 H   0  0  0  1  0  0  0  0  0  0  0  0
   -6.1178   -3.0375    3.4324 H   0  0  0  1  0  0  0  0  0  0  0  0
   -4.9611   -4.2935    3.2722 H   0  0  0  1  0  0  0  0  0  0  0  0
   -5.4539   -3.3474    1.4756 C   0  0  0  1  0  0  0  0  0  0  0  0
   -6.3330   -2.9331    1.0279 H   0  0  0  1  0  0  0  0  0  0  0  0
   -4.9971   -4.4860    0.6300 C   0  0  0  1  0  0  0  0  0  0  0  0
   -5.4743   -4.4175   -0.6417 O   0  5  0  1  0  0  0  0  0  0  0  0
   -4.2736   -5.3694    1.0597 O   0  0  0  1  0  0  0  0  0  0  0  0
   -4.4066   -2.2535    1.5568 C   0  0  0  1  0  0  0  0  0  0  0  0
   -3.5159   -2.6674    1.9812 H   0  0  0  1  0  0  0  0  0  0  0  0
   -4.7769   -1.4759    2.1918 H   0  0  0  1  0  0  0  0  0  0  0  0
   -4.0654   -1.6566    0.2234 C   0  0  0  1  0  0  0  0  0  0  0  0
   -4.5352   -0.7016    0.3333 H   0  0  0  1  0  0  0  0  0  0  0  0
   -4.6656   -2.2796   -0.4064 H   0  0  0  1  0  0  0  0  0  0  0  0
   -2.7746   -1.2168   -0.9422 S   0  3  0  1  0  0  0  0  0  0  0  0
   -2.9285   -2.4545   -2.2459 C   0  0  0  1  0  0  0  0  0  0  0  0
   -3.9629   -2.6065   -2.4738 H   0  0  0  1  0  0  0  0  0  0  0  0
   -2.4973   -3.3762   -1.9150 H   0  0  0  1  0  0  0  0  0  0  0  0
   -2.4167   -2.1149   -3.1220 H   0  0  0  1  0  0  0  0  0  0  0  0
   -1.3149   -1.7361   -0.1825 C   0  0  0  1  0  0  0  0  0  0  0  0
   -1.6459   -2.6747    0.2104 H   0  0  0  1  0  0  0  0  0  0  0  0
   -1.2629   -1.0165    0.6077 H   0  0  0  1  0  0  0  0  0  0  0  0
    0.1602   -2.0392   -0.3396 C   0  0  0  1  0  0  0  0  0  0  0  0
    0.2881   -2.8381   -1.0398 H   0  0  0  1  0  0  0  0  0  0  0  0
    0.8568   -0.8891   -0.7710 O   0  0  0  1  0  0  0  0  0  0  0  0
    0.7718   -2.4057    1.0005 C   0  0  0  1  0  0  0  0  0  0  0  0
    0.3078   -1.8649    1.7987 H   0  0  0  1  0  0  0  0  0  0  0  0
    0.6666   -3.8081    1.2503 O   0  0  0  1  0  0  0  0  0  0  0  0
    1.0363   -4.2941    0.5095 H   0  0  0  1  0  0  0  0  0  0  0  0
    2.2093   -1.9897    0.8233 C   0  0  0  1  0  0  0  0  0  0  0  0
    2.6838   -1.8136    1.7660 H   0  0  0  1  0  0  0  0  0  0  0  0
    2.9491   -2.9690    0.0927 O   0  0  0  1  0  0  0  0  0  0  0  0
    3.6967   -2.5494   -0.3392 H   0  0  0  1  0  0  0  0  0  0  0  0
    2.0576   -0.6955    0.0251 C   0  0  0  1  0  0  0  0  0  0  0  0
    2.9074   -0.5404   -0.6064 H   0  0  0  1  0  0  0  0  0  0  0  0
    1.9013    0.4488    0.9235 N   0  0  0  1  0  0  0  0  0  0  0  0
    2.8607    1.0166    1.7045 C   0  0  0  1  0  0  0  0  0  0  0  0
    3.8415    0.6712    1.7254 H   0  0  0  1  0  0  0  0  0  0  0  0
    2.4571    2.0271    2.4254 N   0  0  0  1  0  0  0  0  0  0  0  0
    1.1174    2.1499    2.0909 C   0  0  0  1  0  0  0  0  0  0  0  0
    0.0921    3.0027    2.4891 C   0  0  0  1  0  0  0  0  0  0  0  0
    0.2677    4.0058    3.4055 N   0  0  0  1  0  0  0  0  0  0  0  0
   -0.4921    4.5645    3.6719 H   0  0  0  1  0  0  0  0  0  0  0  0
    1.1530    4.1646    3.7946 H   0  0  0  1  0  0  0  0  0  0  0  0
   -1.1310    2.8574    1.9679 N   0  0  0  1  0  0  0  0  0  0  0  0
   -1.3233    1.8700    1.0791 C   0  0  0  1  0  0  0  0  0  0  0  0
   -2.2883    1.7873    0.7004 H   0  0  0  1  0  0  0  0  0  0  0  0
   -0.4479    0.9849    0.6183 N   0  0  0  1  0  0  0  0  0  0  0  0
    0.7593    1.1716    1.1537 C   0  0  0  1  0  0  0  0  0  0  0  0
  1  2  1  0  0  0  0
  1  3  1  0  0  0  0
  1  4  1  0  0  0  0
  1  5  1  0  0  0  0
  5  6  1  0  0  0  0
  5  7  1  0  0  0  0
  5 10  1  0  0  0  0
  7  8  1  0  0  0  0
  7  9  2  0  0  0  0
 10 11  1  0  0  0  0
 10 12  1  0  0  0  0
 10 13  1  0  0  0  0
 13 14  1  0  0  0  0
 13 15  1  0  0  0  0
 13 16  1  0  0  0  0
 16 17  1  0  0  0  0
 16 21  1  0  0  0  0
 17 18  1  0  0  0  0
 17 19  1  0  0  0  0
 17 20  1  0  0  0  0
 21 22  1  0  0  0  0
 21 23  1  0  0  0  0
 21 24  1  0  0  0  0
 24 25  1  0  0  0  0
 24 26  1  0  0  0  0
 24 27  1  0  0  0  0
 26 35  1  0  0  0  0
 27 28  1  0  0  0  0
 27 29  1  0  0  0  0
 27 31  1  0  0  0  0
 29 30  1  0  0  0  0
 31 32  1  0  0  0  0
 31 33  1  0  0  0  0
 31 35  1  0  0  0  0
 33 34  1  0  0  0  0
 35 36  1  0  0  0  0
 35 37  1  0  0  0  0
 37 38  1  0  0  0  0
 37 50  1  0  0  0  0
 38 39  1  0  0  0  0
 38 40  2  0  0  0  0
 40 41  1  0  0  0  0
 41 42  1  0  0  0  0
 41 50  2  0  0  0  0
 42 43  1  0  0  0  0
 42 46  2  0  0  0  0
 43 44  1  0  0  0  0
 43 45  1  0  0  0  0
 46 47  1  0  0  0  0
 47 48  1  0  0  0  0
 47 49  2  0  0  0  0
 49 50  1  0  0  0  0
M  END
> <ConfClashScore>
0 

> <ConfOneFourInteractionScore>
-0.982901 

> <ConfScore>
0.0315013 

> <ConfScorePBest>
0.00768248 

> <ConfTolerance>
1.4232 

$$$$
SAM.****
  PyMOL2.4          3D                             0

 50 52  0  0  0  0  0  0  0  0999 V2000
   -0.2605   -0.5080    5.9529 N   0  3  0  1  0  0  0  0  0  0  0  0
   -0.1609    0.3343    5.3338 H   0  0  0  1  0  0  0  0  0  0  0  0
    0.3456   -0.3913    6.8023 H   0  0  0  1  0  0  0  0  0  0  0  0
   -1.2629   -0.6082    6.2487 H   0  0  0  1  0  0  0  0  0  0  0  0
    0.1608   -1.7264    5.2063 C   0  0  0  1  0  0  0  0  0  0  0  0
    0.2842   -2.5222    5.9108 H   0  0  0  1  0  0  0  0  0  0  0  0
    1.4907   -1.4615    4.5889 C   0  0  0  1  0  0  0  0  0  0  0  0
    2.0820   -2.6075    4.1570 O   0  5  0  1  0  0  0  0  0  0  0  0
    1.9974   -0.3572    4.4786 O   0  0  0  1  0  0  0  0  0  0  0  0
   -0.8597   -2.1731    4.1771 C   0  0  0  1  0  0  0  0  0  0  0  0
   -1.7531   -2.4804    4.6793 H   0  0  0  1  0  0  0  0  0  0  0  0
   -0.4609   -2.9963    3.6219 H   0  0  0  1  0  0  0  0  0  0  0  0
   -1.1867   -1.0537    3.2314 C   0  0  0  1  0  0  0  0  0  0  0  0
   -0.2691   -0.7372    2.7811 H   0  0  0  1  0  0  0  0  0  0  0  0
   -1.5944   -0.2530    3.8124 H   0  0  0  1  0  0  0  0  0  0  0  0
   -2.3499   -1.3987    1.8984 S   0  3  0  1  0  0  0  0  0  0  0  0
   -2.6875   -3.1203    2.2515 C   0  0  0  1  0  0  0  0  0  0  0  0
   -1.7716   -3.6733    2.2411 H   0  0  0  1  0  0  0  0  0  0  0  0
   -3.3496   -3.5133    1.5086 H   0  0  0  1  0  0  0  0  0  0  0  0
   -3.1432   -3.2036    3.2161 H   0  0  0  1  0  0  0  0  0  0  0  0
   -1.3780   -1.4945    0.4758 C   0  0  0  1  0  0  0  0  0  0  0  0
   -1.4339   -0.4749    0.1562 H   0  0  0  1  0  0  0  0  0  0  0  0
   -2.0191   -2.0959   -0.1344 H   0  0  0  1  0  0  0  0  0  0  0  0
   -0.0431   -1.8690   -0.1235 C   0  0  0  1  0  0  0  0  0  0  0  0
   -0.1991   -2.4619   -1.0005 H   0  0  0  1  0  0  0  0  0  0  0  0
    0.6954   -0.6819   -0.4581 O   0  0  0  1  0  0  0  0  0  0  0  0
    0.7926   -2.6575    0.9035 C   0  0  0  1  0  0  0  0  0  0  0  0
    0.2726   -2.7380    1.8351 H   0  0  0  1  0  0  0  0  0  0  0  0
    1.0978   -3.9640    0.4133 O   0  0  0  1  0  0  0  0  0  0  0  0
    1.1797   -3.9365   -0.5428 H   0  0  0  1  0  0  0  0  0  0  0  0
    2.0850   -1.8135    1.0647 C   0  0  0  1  0  0  0  0  0  0  0  0
    2.0326   -1.1841    1.9284 H   0  0  0  1  0  0  0  0  0  0  0  0
    3.2413   -2.6474    1.1518 O   0  0  0  1  0  0  0  0  0  0  0  0
    3.9515   -2.2659    0.6305 H   0  0  0  1  0  0  0  0  0  0  0  0
    2.0909   -0.9778   -0.2409 C   0  0  0  1  0  0  0  0  0  0  0  0
    2.4929   -1.5438   -1.0552 H   0  0  0  1  0  0  0  0  0  0  0  0
    2.8658    0.2517   -0.0711 N   0  0  0  1  0  0  0  0  0  0  0  0
    2.4787    1.3664    0.6074 C   0  0  0  1  0  0  0  0  0  0  0  0
    1.6212    1.3937    1.1952 H   0  0  0  1  0  0  0  0  0  0  0  0
    3.2649    2.3986    0.4648 N   0  0  0  1  0  0  0  0  0  0  0  0
    4.2659    1.9310   -0.3725 C   0  0  0  1  0  0  0  0  0  0  0  0
    5.4057    2.4992   -0.9337 C   0  0  0  1  0  0  0  0  0  0  0  0
    5.8338    3.8093   -0.7482 N   0  0  0  1  0  0  0  0  0  0  0  0
    6.6151    4.1433   -1.2364 H   0  0  0  1  0  0  0  0  0  0  0  0
    5.3542    4.3984   -0.1291 H   0  0  0  1  0  0  0  0  0  0  0  0
    6.1911    1.7634   -1.7277 N   0  0  0  1  0  0  0  0  0  0  0  0
    5.8324    0.4917   -1.9642 C   0  0  0  1  0  0  0  0  0  0  0  0
    6.4664   -0.0457   -2.5895 H   0  0  0  1  0  0  0  0  0  0  0  0
    4.7778   -0.1727   -1.5077 N   0  0  0  1  0  0  0  0  0  0  0  0
    4.0286    0.5924   -0.7126 C   0  0  0  1  0  0  0  0  0  0  0  0
  1  2  1  0  0  0  0
  1  3  1  0  0  0  0
  1  4  1  0  0  0  0
  1  5  1  0  0  0  0
  5  6  1  0  0  0  0
  5  7  1  0  0  0  0
  5 10  1  0  0  0  0
  7  8  1  0  0  0  0
  7  9  2  0  0  0  0
 10 11  1  0  0  0  0
 10 12  1  0  0  0  0
 10 13  1  0  0  0  0
 13 14  1  0  0  0  0
 13 15  1  0  0  0  0
 13 16  1  0  0  0  0
 16 17  1  0  0  0  0
 16 21  1  0  0  0  0
 17 18  1  0  0  0  0
 17 19  1  0  0  0  0
 17 20  1  0  0  0  0
 21 22  1  0  0  0  0
 21 23  1  0  0  0  0
 21 24  1  0  0  0  0
 24 25  1  0  0  0  0
 24 26  1  0  0  0  0
 24 27  1  0  0  0  0
 26 35  1  0  0  0  0
 27 28  1  0  0  0  0
 27 29  1  0  0  0  0
 27 31  1  0  0  0  0
 29 30  1  0  0  0  0
 31 32  1  0  0  0  0
 31 33  1  0  0  0  0
 31 35  1  0  0  0  0
 33 34  1  0  0  0  0
 35 36  1  0  0  0  0
 35 37  1  0  0  0  0
 37 38  1  0  0  0  0
 37 50  1  0  0  0  0
 38 39  1  0  0  0  0
 38 40  2  0  0  0  0
 40 41  1  0  0  0  0
 41 42  1  0  0  0  0
 41 50  2  0  0  0  0
 42 43  1  0  0  0  0
 42 46  2  0  0  0  0
 43 44  1  0  0  0  0
 43 45  1  0  0  0  0
 46 47  1  0  0  0  0
 47 48  1  0  0  0  0
 47 49  2  0  0  0  0
 49 50  1  0  0  0  0
M  END
> <ConfClashScore>
0 

> <ConfOneFourInteractionScore>
-0.947453 

> <ConfScore>
0.0362691 

> <ConfScorePBest>
0.00757948 

> <ConfTolerance>
1.21748 

$$$$
SAM.****
  PyMOL2.4          3D                             0

 50 52  0  0  0  0  0  0  0  0999 V2000
   -1.0330    5.0655    0.1485 N   0  3  0  1  0  0  0  0  0  0  0  0
   -1.6677    5.8739    0.3633 H   0  0  0  1  0  0  0  0  0  0  0  0
   -0.5761    5.2180   -0.7845 H   0  0  0  1  0  0  0  0  0  0  0  0
   -0.2955    4.9927    0.8923 H   0  0  0  1  0  0  0  0  0  0  0  0
   -1.8341    3.7949    0.1118 C   0  0  0  1  0  0  0  0  0  0  0  0
   -2.4172    3.8194   -0.7850 H   0  0  0  1  0  0  0  0  0  0  0  0
   -2.7981    3.7464    1.2468 C   0  0  0  1  0  0  0  0  0  0  0  0
   -3.6685    2.7087    1.1235 O   0  5  0  1  0  0  0  0  0  0  0  0
   -2.8147    4.5347    2.1779 O   0  0  0  1  0  0  0  0  0  0  0  0
   -0.9236    2.5805    0.0094 C   0  0  0  1  0  0  0  0  0  0  0  0
   -0.3311    2.5248    0.8986 H   0  0  0  1  0  0  0  0  0  0  0  0
   -0.2838    2.7066   -0.8389 H   0  0  0  1  0  0  0  0  0  0  0  0
   -1.6705    1.2887   -0.1460 C   0  0  0  1  0  0  0  0  0  0  0  0
   -0.9685    0.7517   -0.7491 H   0  0  0  1  0  0  0  0  0  0  0  0
   -2.4810    1.6271   -0.7572 H   0  0  0  1  0  0  0  0  0  0  0  0
   -2.4727   -0.0896    0.6682 S   0  3  0  1  0  0  0  0  0  0  0  0
   -2.5078    0.4477    2.3707 C   0  0  0  1  0  0  0  0  0  0  0  0
   -2.6861    1.5020    2.4088 H   0  0  0  1  0  0  0  0  0  0  0  0
   -1.5682    0.2282    2.8331 H   0  0  0  1  0  0  0  0  0  0  0  0
   -3.2901   -0.0651    2.8902 H   0  0  0  1  0  0  0  0  0  0  0  0
   -1.1540   -1.2024    0.6925 C   0  0  0  1  0  0  0  0  0  0  0  0
   -1.6599   -2.0655    1.0722 H   0  0  0  1  0  0  0  0  0  0  0  0
   -0.5668   -0.7614    1.4708 H   0  0  0  1  0  0  0  0  0  0  0  0
   -0.0552   -1.8838   -0.0911 C   0  0  0  1  0  0  0  0  0  0  0  0
   -0.4885   -2.5199   -0.8345 H   0  0  0  1  0  0  0  0  0  0  0  0
    0.7965   -0.9033   -0.7099 O   0  0  0  1  0  0  0  0  0  0  0  0
    0.8484   -2.7081    0.8588 C   0  0  0  1  0  0  0  0  0  0  0  0
    0.3517   -2.9091    1.7850 H   0  0  0  1  0  0  0  0  0  0  0  0
    1.2436   -3.9396    0.2528 O   0  0  0  1  0  0  0  0  0  0  0  0
    1.0453   -3.9129   -0.6861 H   0  0  0  1  0  0  0  0  0  0  0  0
    2.0422   -1.7927    1.0659 C   0  0  0  1  0  0  0  0  0  0  0  0
    1.8776   -1.1227    1.8837 H   0  0  0  1  0  0  0  0  0  0  0  0
    3.2223   -2.5372    1.2956 O   0  0  0  1  0  0  0  0  0  0  0  0
    3.9175   -2.2237    0.7126 H   0  0  0  1  0  0  0  0  0  0  0  0
    2.1170   -1.0322   -0.2676 C   0  0  0  1  0  0  0  0  0  0  0  0
    2.6954   -1.5842   -0.9788 H   0  0  0  1  0  0  0  0  0  0  0  0
    2.7182    0.2878   -0.0679 N   0  0  0  1  0  0  0  0  0  0  0  0
    2.0814    1.4393    0.2804 C   0  0  0  1  0  0  0  0  0  0  0  0
    1.0477    1.4993    0.3774 H   0  0  0  1  0  0  0  0  0  0  0  0
    2.8659    2.4626    0.4834 N   0  0  0  1  0  0  0  0  0  0  0  0
    4.1339    1.9489    0.2604 C   0  0  0  1  0  0  0  0  0  0  0  0
    5.4177    2.4853    0.2927 C   0  0  0  1  0  0  0  0  0  0  0  0
    5.6159    3.8045    0.6044 N   0  0  0  1  0  0  0  0  0  0  0  0
    4.8522    4.3736    0.8353 H   0  0  0  1  0  0  0  0  0  0  0  0
    6.5215    4.1792    0.5964 H   0  0  0  1  0  0  0  0  0  0  0  0
    6.4690    1.7060    0.0168 N   0  0  0  1  0  0  0  0  0  0  0  0
    6.2354    0.4222   -0.2982 C   0  0  0  1  0  0  0  0  0  0  0  0
    7.0780   -0.1495   -0.5101 H   0  0  0  1  0  0  0  0  0  0  0  0
    5.0742   -0.2162   -0.3758 N   0  0  0  1  0  0  0  0  0  0  0  0
    4.0548    0.5926   -0.0830 C   0  0  0  1  0  0  0  0  0  0  0  0
  1  2  1  0  0  0  0
  1  3  1  0  0  0  0
  1  4  1  0  0  0  0
  1  5  1  0  0  0  0
  5  6  1  0  0  0  0
  5  7  1  0  0  0  0
  5 10  1  0  0  0  0
  7  8  1  0  0  0  0
  7  9  2  0  0  0  0
 10 11  1  0  0  0  0
 10 12  1  0  0  0  0
 10 13  1  0  0  0  0
 13 14  1  0  0  0  0
 13 15  1  0  0  0  0
 13 16  1  0  0  0  0
 16 17  1  0  0  0  0
 16 21  1  0  0  0  0
 17 18  1  0  0  0  0
 17 19  1  0  0  0  0
 17 20  1  0  0  0  0
 21 22  1  0  0  0  0
 21 23  1  0  0  0  0
 21 24  1  0  0  0  0
 24 25  1  0  0  0  0
 24 26  1  0  0  0  0
 24 27  1  0  0  0  0
 26 35  1  0  0  0  0
 27 28  1  0  0  0  0
 27 29  1  0  0  0  0
 27 31  1  0  0  0  0
 29 30  1  0  0  0  0
 31 32  1  0  0  0  0
 31 33  1  0  0  0  0
 31 35  1  0  0  0  0
 33 34  1  0  0  0  0
 35 36  1  0  0  0  0
 35 37  1  0  0  0  0
 37 38  1  0  0  0  0
 37 50  1  0  0  0  0
 38 39  1  0  0  0  0
 38 40  2  0  0  0  0
 40 41  1  0  0  0  0
 41 42  1  0  0  0  0
 41 50  2  0  0  0  0
 42 43  1  0  0  0  0
 42 46  2  0  0  0  0
 43 44  1  0  0  0  0
 43 45  1  0  0  0  0
 46 47  1  0  0  0  0
 47 48  1  0  0  0  0
 47 49  2  0  0  0  0
 49 50  1  0  0  0  0
M  END
> <ConfClashScore>
0 

> <ConfOneFourInteractionScore>
-0.982901 

> <ConfScore>
0.0368948 

> <ConfScorePBest>
0.00747648 

> <ConfTolerance>
1.39437 

$$$$
SAM.****
  PyMOL2.4          3D                             0

 50 52  0  0  0  0  0  0  0  0999 V2000
   -1.5098   -3.8502   -4.7601 N   0  3  0  1  0  0  0  0  0  0  0  0
   -1.4152   -2.9945   -5.3611 H   0  0  0  1  0  0  0  0  0  0  0  0
   -1.8389   -4.6557   -5.3477 H   0  0  0  1  0  0  0  0  0  0  0  0
   -0.5784   -4.0838   -4.3352 H   0  0  0  1  0  0  0  0  0  0  0  0
   -2.4983   -3.5899   -3.6763 C   0  0  0  1  0  0  0  0  0  0  0  0
   -2.5684   -4.4699   -3.0716 H   0  0  0  1  0  0  0  0  0  0  0  0
   -3.8319   -3.3664   -4.3021 C   0  0  0  1  0  0  0  0  0  0  0  0
   -3.9470   -3.9671   -5.5168 O   0  5  0  1  0  0  0  0  0  0  0  0
   -4.7061   -2.7108   -3.7595 O   0  0  0  1  0  0  0  0  0  0  0  0
   -2.0988   -2.4384   -2.7739 C   0  0  0  1  0  0  0  0  0  0  0  0
   -2.0443   -1.5536   -3.3732 H   0  0  0  1  0  0  0  0  0  0  0  0
   -1.1322   -2.6563   -2.3700 H   0  0  0  1  0  0  0  0  0  0  0  0
   -3.0150   -2.1674   -1.6430 C   0  0  0  1  0  0  0  0  0  0  0  0
   -3.0512   -3.0423   -1.0281 H   0  0  0  1  0  0  0  0  0  0  0  0
   -3.9878   -1.9717   -2.0434 H   0  0  0  1  0  0  0  0  0  0  0  0
   -2.5502   -0.7809   -0.6097 S   0  3  0  1  0  0  0  0  0  0  0  0
   -1.4784    0.1556   -1.6949 C   0  0  0  1  0  0  0  0  0  0  0  0
   -2.0663    0.6420   -2.4450 H   0  0  0  1  0  0  0  0  0  0  0  0
   -0.7795   -0.5056   -2.1631 H   0  0  0  1  0  0  0  0  0  0  0  0
   -0.9485    0.8904   -1.1254 H   0  0  0  1  0  0  0  0  0  0  0  0
   -1.3495   -1.6001    0.4495 C   0  0  0  1  0  0  0  0  0  0  0  0
   -1.7775   -2.5311    0.7576 H   0  0  0  1  0  0  0  0  0  0  0  0
   -1.1992   -0.9755    1.3052 H   0  0  0  1  0  0  0  0  0  0  0  0
    0.0135   -1.9007   -0.1362 C   0  0  0  1  0  0  0  0  0  0  0  0
   -0.1002   -2.4929   -1.0201 H   0  0  0  1  0  0  0  0  0  0  0  0
    0.6943   -0.6743   -0.4509 O   0  0  0  1  0  0  0  0  0  0  0  0
    0.8754   -2.6545    0.8953 C   0  0  0  1  0  0  0  0  0  0  0  0
    0.3481   -2.7701    1.8192 H   0  0  0  1  0  0  0  0  0  0  0  0
    1.2537   -3.9391    0.3985 O   0  0  0  1  0  0  0  0  0  0  0  0
    0.6978   -4.1699   -0.3494 H   0  0  0  1  0  0  0  0  0  0  0  0
    2.1203   -1.7467    1.0809 C   0  0  0  1  0  0  0  0  0  0  0  0
    2.0244   -1.1287    1.9491 H   0  0  0  1  0  0  0  0  0  0  0  0
    3.3172   -2.5211    1.1767 O   0  0  0  1  0  0  0  0  0  0  0  0
    3.8324   -2.4153    0.3736 H   0  0  0  1  0  0  0  0  0  0  0  0
    2.1002   -0.9001   -0.2175 C   0  0  0  1  0  0  0  0  0  0  0  0
    2.5414   -1.4373   -1.0309 H   0  0  0  1  0  0  0  0  0  0  0  0
    2.8090    0.3669   -0.0268 N   0  0  0  1  0  0  0  0  0  0  0  0
    2.6573    1.2387    1.0075 C   0  0  0  1  0  0  0  0  0  0  0  0
    2.0538    1.0321    1.8289 H   0  0  0  1  0  0  0  0  0  0  0  0
    3.3263    2.3534    0.8906 N   0  0  0  1  0  0  0  0  0  0  0  0
    3.9871    2.2101   -0.3194 C   0  0  0  1  0  0  0  0  0  0  0  0
    4.8532    3.0152   -1.0534 C   0  0  0  1  0  0  0  0  0  0  0  0
    5.2209    4.2505   -0.5890 N   0  0  0  1  0  0  0  0  0  0  0  0
    5.8851    4.7800   -1.0779 H   0  0  0  1  0  0  0  0  0  0  0  0
    4.8199    4.6046    0.2321 H   0  0  0  1  0  0  0  0  0  0  0  0
    5.3317    2.5796   -2.2239 N   0  0  0  1  0  0  0  0  0  0  0  0
    4.9383    1.3703   -2.6538 C   0  0  0  1  0  0  0  0  0  0  0  0
    5.3289    1.0695   -3.5695 H   0  0  0  1  0  0  0  0  0  0  0  0
    4.1181    0.5066   -2.0680 N   0  0  0  1  0  0  0  0  0  0  0  0
    3.6734    0.9742   -0.9007 C   0  0  0  1  0  0  0  0  0  0  0  0
  1  2  1  0  0  0  0
  1  3  1  0  0  0  0
  1  4  1  0  0  0  0
  1  5  1  0  0  0  0
  5  6  1  0  0  0  0
  5  7  1  0  0  0  0
  5 10  1  0  0  0  0
  7  8  1  0  0  0  0
  7  9  2  0  0  0  0
 10 11  1  0  0  0  0
 10 12  1  0  0  0  0
 10 13  1  0  0  0  0
 13 14  1  0  0  0  0
 13 15  1  0  0  0  0
 13 16  1  0  0  0  0
 16 17  1  0  0  0  0
 16 21  1  0  0  0  0
 17 18  1  0  0  0  0
 17 19  1  0  0  0  0
 17 20  1  0  0  0  0
 21 22  1  0  0  0  0
 21 23  1  0  0  0  0
 21 24  1  0  0  0  0
 24 25  1  0  0  0  0
 24 26  1  0  0  0  0
 24 27  1  0  0  0  0
 26 35  1  0  0  0  0
 27 28  1  0  0  0  0
 27 29  1  0  0  0  0
 27 31  1  0  0  0  0
 29 30  1  0  0  0  0
 31 32  1  0  0  0  0
 31 33  1  0  0  0  0
 31 35  1  0  0  0  0
 33 34  1  0  0  0  0
 35 36  1  0  0  0  0
 35 37  1  0  0  0  0
 37 38  1  0  0  0  0
 37 50  1  0  0  0  0
 38 39  1  0  0  0  0
 38 40  2  0  0  0  0
 40 41  1  0  0  0  0
 41 42  1  0  0  0  0
 41 50  2  0  0  0  0
 42 43  1  0  0  0  0
 42 46  2  0  0  0  0
 43 44  1  0  0  0  0
 43 45  1  0  0  0  0
 46 47  1  0  0  0  0
 47 48  1  0  0  0  0
 47 49  2  0  0  0  0
 49 50  1  0  0  0  0
M  END
> <ConfClashScore>
0 

> <ConfOneFourInteractionScore>
-0.96848 

> <ConfScore>
0.0413578 

> <ConfScorePBest>
0.00737347 

> <ConfTolerance>
1.32165 

$$$$
SAM.****
  PyMOL2.4          3D                             0

 50 52  0  0  0  0  0  0  0  0999 V2000
   -4.1193    4.1924    1.8353 N   0  3  0  1  0  0  0  0  0  0  0  0
   -4.2334    4.8528    1.0270 H   0  0  0  1  0  0  0  0  0  0  0  0
   -3.5340    4.6475    2.5788 H   0  0  0  1  0  0  0  0  0  0  0  0
   -5.0634    3.9550    2.2289 H   0  0  0  1  0  0  0  0  0  0  0  0
   -3.4485    2.9467    1.3689 C   0  0  0  1  0  0  0  0  0  0  0  0
   -2.7585    3.1805    0.5852 H   0  0  0  1  0  0  0  0  0  0  0  0
   -4.4922    2.0223    0.8434 C   0  0  0  1  0  0  0  0  0  0  0  0
   -3.9632    1.0902    0.0062 O   0  5  0  1  0  0  0  0  0  0  0  0
   -5.6783    2.0837    1.1223 O   0  0  0  1  0  0  0  0  0  0  0  0
   -2.6945    2.3142    2.5228 C   0  0  0  1  0  0  0  0  0  0  0  0
   -3.3890    2.1104    3.3108 H   0  0  0  1  0  0  0  0  0  0  0  0
   -1.9571    3.0087    2.8675 H   0  0  0  1  0  0  0  0  0  0  0  0
   -2.0058    1.0338    2.1527 C   0  0  0  1  0  0  0  0  0  0  0  0
   -1.5023    0.8325    3.0752 H   0  0  0  1  0  0  0  0  0  0  0  0
   -1.3047    1.4120    1.4383 H   0  0  0  1  0  0  0  0  0  0  0  0
   -2.1741   -0.6251    1.5452 S   0  3  0  1  0  0  0  0  0  0  0  0
   -1.7620   -1.5806    2.9834 C   0  0  0  1  0  0  0  0  0  0  0  0
   -0.8048   -2.0387    2.8456 H   0  0  0  1  0  0  0  0  0  0  0  0
   -2.5021   -2.3391    3.1315 H   0  0  0  1  0  0  0  0  0  0  0  0
   -1.7306   -0.9401    3.8399 H   0  0  0  1  0  0  0  0  0  0  0  0
   -0.7971   -0.8975    0.5415 C   0  0  0  1  0  0  0  0  0  0  0  0
   -0.0439   -0.4418    1.1497 H   0  0  0  1  0  0  0  0  0  0  0  0
   -1.0415   -0.2466   -0.2719 H   0  0  0  1  0  0  0  0  0  0  0  0
    0.0566   -1.9066   -0.1962 C   0  0  0  1  0  0  0  0  0  0  0  0
   -0.5730   -2.5622   -0.7609 H   0  0  0  1  0  0  0  0  0  0  0  0
    1.0123   -1.2459   -1.0519 O   0  0  0  1  0  0  0  0  0  0  0  0
    0.9458   -2.7062    0.7902 C   0  0  0  1  0  0  0  0  0  0  0  0
    0.4292   -2.9035    1.7062 H   0  0  0  1  0  0  0  0  0  0  0  0
    1.3814   -3.9382    0.2136 O   0  0  0  1  0  0  0  0  0  0  0  0
    0.6613   -4.5727    0.2314 H   0  0  0  1  0  0  0  0  0  0  0  0
    2.1365   -1.7361    1.0127 C   0  0  0  1  0  0  0  0  0  0  0  0
    2.0102   -1.1807    1.9185 H   0  0  0  1  0  0  0  0  0  0  0  0
    3.3724   -2.4521    1.0605 O   0  0  0  1  0  0  0  0  0  0  0  0
    3.5763   -2.7979    0.1885 H   0  0  0  1  0  0  0  0  0  0  0  0
    2.0919   -0.8024   -0.2126 C   0  0  0  1  0  0  0  0  0  0  0  0
    3.0170   -0.8568   -0.7476 H   0  0  0  1  0  0  0  0  0  0  0  0
    1.8571    0.5748    0.2172 N   0  0  0  1  0  0  0  0  0  0  0  0
    1.6369    1.0492    1.4739 C   0  0  0  1  0  0  0  0  0  0  0  0
    1.6958    0.4446    2.3181 H   0  0  0  1  0  0  0  0  0  0  0  0
    1.3462    2.3200    1.5397 N   0  0  0  1  0  0  0  0  0  0  0  0
    1.3841    2.7306    0.2163 C   0  0  0  1  0  0  0  0  0  0  0  0
    1.1656    3.9437   -0.4300 C   0  0  0  1  0  0  0  0  0  0  0  0
    0.8335    5.0951    0.2340 N   0  0  0  1  0  0  0  0  0  0  0  0
    0.5840    5.8972   -0.2708 H   0  0  0  1  0  0  0  0  0  0  0  0
    0.8455    5.1166    1.2136 H   0  0  0  1  0  0  0  0  0  0  0  0
    1.2788    4.0159   -1.7607 N   0  0  0  1  0  0  0  0  0  0  0  0
    1.5898    2.8932   -2.4277 C   0  0  0  1  0  0  0  0  0  0  0  0
    1.6643    2.9897   -3.4605 H   0  0  0  1  0  0  0  0  0  0  0  0
    1.8148    1.6765   -1.9471 N   0  0  0  1  0  0  0  0  0  0  0  0
    1.7032    1.6510   -0.6182 C   0  0  0  1  0  0  0  0  0  0  0  0
  1  2  1  0  0  0  0
  1  3  1  0  0  0  0
  1  4  1  0  0  0  0
  1  5  1  0  0  0  0
  5  6  1  0  0  0  0
  5  7  1  0  0  0  0
  5 10  1  0  0  0  0
  7  8  1  0  0  0  0
  7  9  2  0  0  0  0
 10 11  1  0  0  0  0
 10 12  1  0  0  0  0
 10 13  1  0  0  0  0
 13 14  1  0  0  0  0
 13 15  1  0  0  0  0
 13 16  1  0  0  0  0
 16 17  1  0  0  0  0
 16 21  1  0  0  0  0
 17 18  1  0  0  0  0
 17 19  1  0  0  0  0
 17 20  1  0  0  0  0
 21 22  1  0  0  0  0
 21 23  1  0  0  0  0
 21 24  1  0  0  0  0
 24 25  1  0  0  0  0
 24 26  1  0  0  0  0
 24 27  1  0  0  0  0
 26 35  1  0  0  0  0
 27 28  1  0  0  0  0
 27 29  1  0  0  0  0
 27 31  1  0  0  0  0
 29 30  1  0  0  0  0
 31 32  1  0  0  0  0
 31 33  1  0  0  0  0
 31 35  1  0  0  0  0
 33 34  1  0  0  0  0
 35 36  1  0  0  0  0
 35 37  1  0  0  0  0
 37 38  1  0  0  0  0
 37 50  1  0  0  0  0
 38 39  1  0  0  0  0
 38 40  2  0  0  0  0
 40 41  1  0  0  0  0
 41 42  1  0  0  0  0
 41 50  2  0  0  0  0
 42 43  1  0  0  0  0
 42 46  2  0  0  0  0
 43 44  1  0  0  0  0
 43 45  1  0  0  0  0
 46 47  1  0  0  0  0
 47 48  1  0  0  0  0
 47 49  2  0  0  0  0
 49 50  1  0  0  0  0
M  END
> <ConfClashScore>
0 

> <ConfOneFourInteractionScore>
-0.986101 

> <ConfScore>
0.04168 

> <ConfScorePBest>
0.00727047 

> <ConfTolerance>
1.61086 

$$$$
SAM.****
  PyMOL2.4          3D                             0

 50 52  0  0  0  0  0  0  0  0999 V2000
   -0.7833   -6.3389   -2.7613 N   0  3  0  1  0  0  0  0  0  0  0  0
   -1.0047   -7.3395   -2.9903 H   0  0  0  1  0  0  0  0  0  0  0  0
    0.0621   -6.3012   -2.1398 H   0  0  0  1  0  0  0  0  0  0  0  0
   -0.5899   -5.8117   -3.6485 H   0  0  0  1  0  0  0  0  0  0  0  0
   -1.9431   -5.7210   -2.0596 C   0  0  0  1  0  0  0  0  0  0  0  0
   -2.4672   -6.4876   -1.5280 H   0  0  0  1  0  0  0  0  0  0  0  0
   -2.8769   -5.1308   -3.0595 C   0  0  0  1  0  0  0  0  0  0  0  0
   -4.1640   -5.1544   -2.6209 O   0  5  0  1  0  0  0  0  0  0  0  0
   -2.5405   -4.6789   -4.1416 O   0  0  0  1  0  0  0  0  0  0  0  0
   -1.4690   -4.6811   -1.0467 C   0  0  0  1  0  0  0  0  0  0  0  0
   -0.9459   -3.9027   -1.5617 H   0  0  0  1  0  0  0  0  0  0  0  0
   -0.8113   -5.1496   -0.3447 H   0  0  0  1  0  0  0  0  0  0  0  0
   -2.6177   -4.0952   -0.3194 C   0  0  0  1  0  0  0  0  0  0  0  0
   -3.1487   -4.8914    0.1592 H   0  0  0  1  0  0  0  0  0  0  0  0
   -3.2558   -3.6195   -1.0345 H   0  0  0  1  0  0  0  0  0  0  0  0
   -2.1881   -2.8967    0.9190 S   0  3  0  1  0  0  0  0  0  0  0  0
   -3.7652   -2.1707    1.2533 C   0  0  0  1  0  0  0  0  0  0  0  0
   -4.4891   -2.5575    0.5669 H   0  0  0  1  0  0  0  0  0  0  0  0
   -3.6996   -1.1086    1.1412 H   0  0  0  1  0  0  0  0  0  0  0  0
   -4.0612   -2.4067    2.2541 H   0  0  0  1  0  0  0  0  0  0  0  0
   -1.3640   -1.6631   -0.1137 C   0  0  0  1  0  0  0  0  0  0  0  0
   -1.4211   -0.7193    0.3870 H   0  0  0  1  0  0  0  0  0  0  0  0
   -1.8883   -1.6059   -1.0447 H   0  0  0  1  0  0  0  0  0  0  0  0
    0.0890   -1.9488   -0.4110 C   0  0  0  1  0  0  0  0  0  0  0  0
    0.1576   -2.6521   -1.2144 H   0  0  0  1  0  0  0  0  0  0  0  0
    0.7945   -0.7220   -0.7428 O   0  0  0  1  0  0  0  0  0  0  0  0
    0.7980   -2.4823    0.8332 C   0  0  0  1  0  0  0  0  0  0  0  0
    0.3792   -2.0709    1.7277 H   0  0  0  1  0  0  0  0  0  0  0  0
    0.7434   -3.9083    0.8930 O   0  0  0  1  0  0  0  0  0  0  0  0
    1.2914   -4.2198    1.6171 H   0  0  0  1  0  0  0  0  0  0  0  0
    2.2064   -1.9947    0.6107 C   0  0  0  1  0  0  0  0  0  0  0  0
    2.7453   -1.9336    1.5331 H   0  0  0  1  0  0  0  0  0  0  0  0
    2.9100   -2.8439   -0.2971 O   0  0  0  1  0  0  0  0  0  0  0  0
    3.8127   -2.9611    0.0079 H   0  0  0  1  0  0  0  0  0  0  0  0
    1.9826   -0.6174    0.0131 C   0  0  0  1  0  0  0  0  0  0  0  0
    2.8036   -0.3455   -0.6169 H   0  0  0  1  0  0  0  0  0  0  0  0
    1.8285    0.3795    1.0714 N   0  0  0  1  0  0  0  0  0  0  0  0
    0.8989    0.4468    2.0634 C   0  0  0  1  0  0  0  0  0  0  0  0
    0.1508   -0.2666    2.1780 H   0  0  0  1  0  0  0  0  0  0  0  0
    1.0170    1.4741    2.8599 N   0  0  0  1  0  0  0  0  0  0  0  0
    2.1240    2.1445    2.3632 C   0  0  0  1  0  0  0  0  0  0  0  0
    2.7938    3.3106    2.7216 C   0  0  0  1  0  0  0  0  0  0  0  0
    2.3731    4.0559    3.7843 N   0  0  0  1  0  0  0  0  0  0  0  0
    1.5373    3.8281    4.2424 H   0  0  0  1  0  0  0  0  0  0  0  0
    2.9069    4.8190    4.0895 H   0  0  0  1  0  0  0  0  0  0  0  0
    3.8604    3.7055    2.0180 N   0  0  0  1  0  0  0  0  0  0  0  0
    4.2365    2.9549    0.9705 C   0  0  0  1  0  0  0  0  0  0  0  0
    5.0672    3.2975    0.4469 H   0  0  0  1  0  0  0  0  0  0  0  0
    3.6914    1.8345    0.5129 N   0  0  0  1  0  0  0  0  0  0  0  0
    2.6398    1.4705    1.2481 C   0  0  0  1  0  0  0  0  0  0  0  0
  1  2  1  0  0  0  0
  1  3  1  0  0  0  0
  1  4  1  0  0  0  0
  1  5  1  0  0  0  0
  5  6  1  0  0  0  0
  5  7  1  0  0  0  0
  5 10  1  0  0  0  0
  7  8  1  0  0  0  0
  7  9  2  0  0  0  0
 10 11  1  0  0  0  0
 10 12  1  0  0  0  0
 10 13  1  0  0  0  0
 13 14  1  0  0  0  0
 13 15  1  0  0  0  0
 13 16  1  0  0  0  0
 16 17  1  0  0  0  0
 16 21  1  0  0  0  0
 17 18  1  0  0  0  0
 17 19  1  0  0  0  0
 17 20  1  0  0  0  0
 21 22  1  0  0  0  0
 21 23  1  0  0  0  0
 21 24  1  0  0  0  0
 24 25  1  0  0  0  0
 24 26  1  0  0  0  0
 24 27  1  0  0  0  0
 26 35  1  0  0  0  0
 27 28  1  0  0  0  0
 27 29  1  0  0  0  0
 27 31  1  0  0  0  0
 29 30  1  0  0  0  0
 31 32  1  0  0  0  0
 31 33  1  0  0  0  0
 31 35  1  0  0  0  0
 33 34  1  0  0  0  0
 35 36  1  0  0  0  0
 35 37  1  0  0  0  0
 37 38  1  0  0  0  0
 37 50  1  0  0  0  0
 38 39  1  0  0  0  0
 38 40  2  0  0  0  0
 40 41  1  0  0  0  0
 41 42  1  0  0  0  0
 41 50  2  0  0  0  0
 42 43  1  0  0  0  0
 42 46  2  0  0  0  0
 43 44  1  0  0  0  0
 43 45  1  0  0  0  0
 46 47  1  0  0  0  0
 47 48  1  0  0  0  0
 47 49  2  0  0  0  0
 49 50  1  0  0  0  0
M  END
> <ConfClashScore>
0 

> <ConfOneFourInteractionScore>
-0.986105 

> <ConfScore>
0.0424777 

> <ConfScorePBest>
0.00716747 

> <ConfTolerance>
1.46386 

$$$$
SAM.****
  PyMOL2.4          3D                             0

 50 52  0  0  0  0  0  0  0  0999 V2000
   -0.4582    1.7661    5.2904 N   0  3  0  1  0  0  0  0  0  0  0  0
   -1.1552    1.8695    6.0689 H   0  0  0  1  0  0  0  0  0  0  0  0
    0.4527    2.2034    5.5761 H   0  0  0  1  0  0  0  0  0  0  0  0
   -0.3091    0.7467    5.0876 H   0  0  0  1  0  0  0  0  0  0  0  0
   -0.9730    2.4451    4.0684 C   0  0  0  1  0  0  0  0  0  0  0  0
   -0.2024    2.4115    3.3268 H   0  0  0  1  0  0  0  0  0  0  0  0
   -1.2614    3.8793    4.3511 C   0  0  0  1  0  0  0  0  0  0  0  0
   -1.2687    4.6246    3.2135 O   0  5  0  1  0  0  0  0  0  0  0  0
   -1.4672    4.3403    5.4618 O   0  0  0  1  0  0  0  0  0  0  0  0
   -2.1554    1.6617    3.5316 C   0  0  0  1  0  0  0  0  0  0  0  0
   -2.5670    2.2085    2.7091 H   0  0  0  1  0  0  0  0  0  0  0  0
   -2.8838    1.5884    4.3120 H   0  0  0  1  0  0  0  0  0  0  0  0
   -1.8514    0.2911    3.0616 C   0  0  0  1  0  0  0  0  0  0  0  0
   -2.7608   -0.1480    2.7079 H   0  0  0  1  0  0  0  0  0  0  0  0
   -1.4833   -0.2714    3.8941 H   0  0  0  1  0  0  0  0  0  0  0  0
   -0.6506    0.1956    1.7584 S   0  3  0  1  0  0  0  0  0  0  0  0
   -1.1449    1.5416    0.7117 C   0  0  0  1  0  0  0  0  0  0  0  0
   -2.0257    1.9995    1.1108 H   0  0  0  1  0  0  0  0  0  0  0  0
   -1.3495    1.1720   -0.2714 H   0  0  0  1  0  0  0  0  0  0  0  0
   -0.3574    2.2644    0.6648 H   0  0  0  1  0  0  0  0  0  0  0  0
   -1.1231   -1.2303    0.7624 C   0  0  0  1  0  0  0  0  0  0  0  0
   -1.9027   -0.9144    0.1012 H   0  0  0  1  0  0  0  0  0  0  0  0
   -1.5014   -1.9757    1.4303 H   0  0  0  1  0  0  0  0  0  0  0  0
   -0.0524   -1.8814   -0.0808 C   0  0  0  1  0  0  0  0  0  0  0  0
   -0.5102   -2.4992   -0.8250 H   0  0  0  1  0  0  0  0  0  0  0  0
    0.7695   -0.8782   -0.7036 O   0  0  0  1  0  0  0  0  0  0  0  0
    0.8916   -2.7261    0.8101 C   0  0  0  1  0  0  0  0  0  0  0  0
    0.4319   -2.9564    1.7485 H   0  0  0  1  0  0  0  0  0  0  0  0
    1.2702   -3.9374    0.1547 O   0  0  0  1  0  0  0  0  0  0  0  0
    0.6498   -4.1261   -0.5532 H   0  0  0  1  0  0  0  0  0  0  0  0
    2.0873   -1.8089    0.9974 C   0  0  0  1  0  0  0  0  0  0  0  0
    1.9505   -1.1633    1.8396 H   0  0  0  1  0  0  0  0  0  0  0  0
    3.2914   -2.5592    1.1623 O   0  0  0  1  0  0  0  0  0  0  0  0
    4.0477   -1.9735    1.0803 H   0  0  0  1  0  0  0  0  0  0  0  0
    2.1067   -1.0107   -0.3158 C   0  0  0  1  0  0  0  0  0  0  0  0
    2.6604   -1.5385   -1.0639 H   0  0  0  1  0  0  0  0  0  0  0  0
    2.7068    0.3053   -0.1020 N   0  0  0  1  0  0  0  0  0  0  0  0
    2.0672    1.5067   -0.0869 C   0  0  0  1  0  0  0  0  0  0  0  0
    1.0405    1.5954   -0.2267 H   0  0  0  1  0  0  0  0  0  0  0  0
    2.8396    2.5391    0.1165 N   0  0  0  1  0  0  0  0  0  0  0  0
    4.0997    1.9790    0.2577 C   0  0  0  1  0  0  0  0  0  0  0  0
    5.3721    2.4965    0.4818 C   0  0  0  1  0  0  0  0  0  0  0  0
    5.6197    3.8365    0.6233 N   0  0  0  1  0  0  0  0  0  0  0  0
    4.8851    4.4810    0.5499 H   0  0  0  1  0  0  0  0  0  0  0  0
    6.5315    4.1505    0.7980 H   0  0  0  1  0  0  0  0  0  0  0  0
    6.4190    1.6687    0.5672 N   0  0  0  1  0  0  0  0  0  0  0  0
    6.1954    0.3536    0.4165 C   0  0  0  1  0  0  0  0  0  0  0  0
    7.0351   -0.2562    0.4855 H   0  0  0  1  0  0  0  0  0  0  0  0
    5.0474   -0.2735    0.1914 N   0  0  0  1  0  0  0  0  0  0  0  0
    4.0295    0.5858    0.1246 C   0  0  0  1  0  0  0  0  0  0  0  0
  1  2  1  0  0  0  0
  1  3  1  0  0  0  0
  1  4  1  0  0  0  0
  1  5  1  0  0  0  0
  5  6  1  0  0  0  0
  5  7  1  0  0  0  0
  5 10  1  0  0  0  0
  7  8  1  0  0  0  0
  7  9  2  0  0  0  0
 10 11  1  0  0  0  0
 10 12  1  0  0  0  0
 10 13  1  0  0  0  0
 13 14  1  0  0  0  0
 13 15  1  0  0  0  0
 13 16  1  0  0  0  0
 16 17  1  0  0  0  0
 16 21  1  0  0  0  0
 17 18  1  0  0  0  0
 17 19  1  0  0  0  0
 17 20  1  0  0  0  0
 21 22  1  0  0  0  0
 21 23  1  0  0  0  0
 21 24  1  0  0  0  0
 24 25  1  0  0  0  0
 24 26  1  0  0  0  0
 24 27  1  0  0  0  0
 26 35  1  0  0  0  0
 27 28  1  0  0  0  0
 27 29  1  0  0  0  0
 27 31  1  0  0  0  0
 29 30  1  0  0  0  0
 31 32  1  0  0  0  0
 31 33  1  0  0  0  0
 31 35  1  0  0  0  0
 33 34  1  0  0  0  0
 35 36  1  0  0  0  0
 35 37  1  0  0  0  0
 37 38  1  0  0  0  0
 37 50  1  0  0  0  0
 38 39  1  0  0  0  0
 38 40  2  0  0  0  0
 40 41  1  0  0  0  0
 41 42  1  0  0  0  0
 41 50  2  0  0  0  0
 42 43  1  0  0  0  0
 42 46  2  0  0  0  0
 43 44  1  0  0  0  0
 43 45  1  0  0  0  0
 46 47  1  0  0  0  0
 47 48  1  0  0  0  0
 47 49  2  0  0  0  0
 49 50  1  0  0  0  0
M  END
> <ConfClashScore>
0 

> <ConfOneFourInteractionScore>
-0.995952 

> <ConfScore>
0.0433617 

> <ConfScorePBest>
0.00706447 

> <ConfTolerance>
1.32303 

$$$$
SAM.****
  PyMOL2.4          3D                             0

 50 52  0  0  0  0  0  0  0  0999 V2000
   -0.6740   -6.4189    2.1198 N   0  3  0  1  0  0  0  0  0  0  0  0
   -1.2214   -7.3099    2.0247 H   0  0  0  1  0  0  0  0  0  0  0  0
   -0.2227   -6.3851    3.0672 H   0  0  0  1  0  0  0  0  0  0  0  0
    0.0671   -6.3828    1.3769 H   0  0  0  1  0  0  0  0  0  0  0  0
   -1.5886   -5.2551    1.9646 C   0  0  0  1  0  0  0  0  0  0  0  0
   -1.1632   -4.4150    2.4727 H   0  0  0  1  0  0  0  0  0  0  0  0
   -2.8640   -5.6147    2.6459 C   0  0  0  1  0  0  0  0  0  0  0  0
   -3.5443   -4.5248    3.0917 O   0  5  0  1  0  0  0  0  0  0  0  0
   -3.2319   -6.7708    2.7749 O   0  0  0  1  0  0  0  0  0  0  0  0
   -1.7688   -4.8827    0.5056 C   0  0  0  1  0  0  0  0  0  0  0  0
   -2.0349   -5.7643   -0.0392 H   0  0  0  1  0  0  0  0  0  0  0  0
   -0.8402   -4.5009    0.1357 H   0  0  0  1  0  0  0  0  0  0  0  0
   -2.8321   -3.8463    0.2827 C   0  0  0  1  0  0  0  0  0  0  0  0
   -3.7769   -4.3121    0.4702 H   0  0  0  1  0  0  0  0  0  0  0  0
   -2.7782   -3.5483   -0.7435 H   0  0  0  1  0  0  0  0  0  0  0  0
   -2.7541   -2.1806    1.3950 S   0  3  0  1  0  0  0  0  0  0  0  0
   -4.1074   -1.4852    0.4490 C   0  0  0  1  0  0  0  0  0  0  0  0
   -5.0280   -1.6487    0.9693 H   0  0  0  1  0  0  0  0  0  0  0  0
   -4.1513   -1.9573   -0.5102 H   0  0  0  1  0  0  0  0  0  0  0  0
   -3.9511   -0.4342    0.3230 H   0  0  0  1  0  0  0  0  0  0  0  0
   -1.3299   -1.5646    0.6401 C   0  0  0  1  0  0  0  0  0  0  0  0
   -0.9370   -0.9879    1.4512 H   0  0  0  1  0  0  0  0  0  0  0  0
   -1.7804   -0.9111   -0.0775 H   0  0  0  1  0  0  0  0  0  0  0  0
   -0.0421   -1.8802   -0.0863 C   0  0  0  1  0  0  0  0  0  0  0  0
   -0.2580   -2.4544   -0.9630 H   0  0  0  1  0  0  0  0  0  0  0  0
    0.6280   -0.6615   -0.4501 O   0  0  0  1  0  0  0  0  0  0  0  0
    0.9051   -2.6682    0.8393 C   0  0  0  1  0  0  0  0  0  0  0  0
    0.4730   -2.7900    1.8106 H   0  0  0  1  0  0  0  0  0  0  0  0
    1.2040   -3.9507    0.2862 O   0  0  0  1  0  0  0  0  0  0  0  0
    0.6910   -4.0819   -0.5145 H   0  0  0  1  0  0  0  0  0  0  0  0
    2.1810   -1.7876    0.9102 C   0  0  0  1  0  0  0  0  0  0  0  0
    2.1872   -1.1832    1.7932 H   0  0  0  1  0  0  0  0  0  0  0  0
    3.3654   -2.5861    0.8704 O   0  0  0  1  0  0  0  0  0  0  0  0
    3.9412   -2.3419    1.5987 H   0  0  0  1  0  0  0  0  0  0  0  0
    2.0455   -0.9179   -0.3659 C   0  0  0  1  0  0  0  0  0  0  0  0
    2.3899   -1.4489   -1.2287 H   0  0  0  1  0  0  0  0  0  0  0  0
    2.7969    0.3332   -0.2292 N   0  0  0  1  0  0  0  0  0  0  0  0
    3.5826    0.6555    0.8345 C   0  0  0  1  0  0  0  0  0  0  0  0
    3.7157    0.0176    1.6450 H   0  0  0  1  0  0  0  0  0  0  0  0
    4.1565    1.8256    0.7607 N   0  0  0  1  0  0  0  0  0  0  0  0
    3.7245    2.3227   -0.4591 C   0  0  0  1  0  0  0  0  0  0  0  0
    3.9400    3.5086   -1.1549 C   0  0  0  1  0  0  0  0  0  0  0  0
    4.7244    4.5964   -0.7605 N   0  0  0  1  0  0  0  0  0  0  0  0
    5.2134    4.5657    0.0882 H   0  0  0  1  0  0  0  0  0  0  0  0
    4.7853    5.3896   -1.3327 H   0  0  0  1  0  0  0  0  0  0  0  0
    3.3591    3.6938   -2.3453 N   0  0  0  1  0  0  0  0  0  0  0  0
    2.5689    2.7173   -2.8188 C   0  0  0  1  0  0  0  0  0  0  0  0
    2.1327    2.9010   -3.7448 H   0  0  0  1  0  0  0  0  0  0  0  0
    2.2692    1.5490   -2.2647 N   0  0  0  1  0  0  0  0  0  0  0  0
    2.8767    1.4001   -1.0866 C   0  0  0  1  0  0  0  0  0  0  0  0
  1  2  1  0  0  0  0
  1  3  1  0  0  0  0
  1  4  1  0  0  0  0
  1  5  1  0  0  0  0
  5  6  1  0  0  0  0
  5  7  1  0  0  0  0
  5 10  1  0  0  0  0
  7  8  1  0  0  0  0
  7  9  2  0  0  0  0
 10 11  1  0  0  0  0
 10 12  1  0  0  0  0
 10 13  1  0  0  0  0
 13 14  1  0  0  0  0
 13 15  1  0  0  0  0
 13 16  1  0  0  0  0
 16 17  1  0  0  0  0
 16 21  1  0  0  0  0
 17 18  1  0  0  0  0
 17 19  1  0  0  0  0
 17 20  1  0  0  0  0
 21 22  1  0  0  0  0
 21 23  1  0  0  0  0
 21 24  1  0  0  0  0
 24 25  1  0  0  0  0
 24 26  1  0  0  0  0
 24 27  1  0  0  0  0
 26 35  1  0  0  0  0
 27 28  1  0  0  0  0
 27 29  1  0  0  0  0
 27 31  1  0  0  0  0
 29 30  1  0  0  0  0
 31 32  1  0  0  0  0
 31 33  1  0  0  0  0
 31 35  1  0  0  0  0
 33 34  1  0  0  0  0
 35 36  1  0  0  0  0
 35 37  1  0  0  0  0
 37 38  1  0  0  0  0
 37 50  1  0  0  0  0
 38 39  1  0  0  0  0
 38 40  2  0  0  0  0
 40 41  1  0  0  0  0
 41 42  1  0  0  0  0
 41 50  2  0  0  0  0
 42 43  1  0  0  0  0
 42 46  2  0  0  0  0
 43 44  1  0  0  0  0
 43 45  1  0  0  0  0
 46 47  1  0  0  0  0
 47 48  1  0  0  0  0
 47 49  2  0  0  0  0
 49 50  1  0  0  0  0
M  END
> <ConfClashScore>
0 

> <ConfOneFourInteractionScore>
-0.984131 

> <ConfScore>
0.046062 

> <ConfScorePBest>
0.00696147 

> <ConfTolerance>
1.42439 

$$$$
SAM.****
  PyMOL2.4          3D                             0

 50 52  0  0  0  0  0  0  0  0999 V2000
   -6.0374   -2.2125   -0.9539 N   0  3  0  1  0  0  0  0  0  0  0  0
   -5.2714   -2.7367   -1.4448 H   0  0  0  1  0  0  0  0  0  0  0  0
   -6.4732   -1.5264   -1.6186 H   0  0  0  1  0  0  0  0  0  0  0  0
   -6.7672   -2.8900   -0.6211 H   0  0  0  1  0  0  0  0  0  0  0  0
   -5.4655   -1.4746    0.2234 C   0  0  0  1  0  0  0  0  0  0  0  0
   -5.8998   -1.8889    1.1092 H   0  0  0  1  0  0  0  0  0  0  0  0
   -5.8415   -0.0339    0.1686 C   0  0  0  1  0  0  0  0  0  0  0  0
   -5.2740    0.6730    1.1824 O   0  5  0  1  0  0  0  0  0  0  0  0
   -6.5681    0.4624   -0.6765 O   0  0  0  1  0  0  0  0  0  0  0  0
   -3.9658   -1.7320    0.2865 C   0  0  0  1  0  0  0  0  0  0  0  0
   -3.5390   -1.1311    1.0622 H   0  0  0  1  0  0  0  0  0  0  0  0
   -3.5249   -1.4691   -0.6523 H   0  0  0  1  0  0  0  0  0  0  0  0
   -3.6808   -3.2044    0.5792 C   0  0  0  1  0  0  0  0  0  0  0  0
   -4.0229   -3.7973   -0.2431 H   0  0  0  1  0  0  0  0  0  0  0  0
   -4.2023   -3.4919    1.4682 H   0  0  0  1  0  0  0  0  0  0  0  0
   -1.9417   -3.4809    0.8110 S   0  3  0  1  0  0  0  0  0  0  0  0
   -1.7586   -3.0866    2.5247 C   0  0  0  1  0  0  0  0  0  0  0  0
   -1.8132   -3.9837    3.1054 H   0  0  0  1  0  0  0  0  0  0  0  0
   -2.5415   -2.4209    2.8229 H   0  0  0  1  0  0  0  0  0  0  0  0
   -0.8105   -2.6167    2.6830 H   0  0  0  1  0  0  0  0  0  0  0  0
   -1.2797   -2.0253   -0.0318 C   0  0  0  1  0  0  0  0  0  0  0  0
   -1.4701   -1.1704    0.5829 H   0  0  0  1  0  0  0  0  0  0  0  0
   -1.7956   -1.9175   -0.9630 H   0  0  0  1  0  0  0  0  0  0  0  0
    0.2022   -2.0746   -0.3199 C   0  0  0  1  0  0  0  0  0  0  0  0
    0.3917   -2.7864   -1.0960 H   0  0  0  1  0  0  0  0  0  0  0  0
    0.6804   -0.8073   -0.6809 O   0  0  0  1  0  0  0  0  0  0  0  0
    0.9914   -2.4299    0.9485 C   0  0  0  1  0  0  0  0  0  0  0  0
    0.5274   -2.0171    1.8198 H   0  0  0  1  0  0  0  0  0  0  0  0
    1.1143   -3.8450    1.0990 O   0  0  0  1  0  0  0  0  0  0  0  0
    0.3529   -4.2766    0.7045 H   0  0  0  1  0  0  0  0  0  0  0  0
    2.3319   -1.7925    0.6935 C   0  0  0  1  0  0  0  0  0  0  0  0
    2.8198   -1.5440    1.6127 H   0  0  0  1  0  0  0  0  0  0  0  0
    3.1725   -2.6562   -0.0743 O   0  0  0  1  0  0  0  0  0  0  0  0
    3.3040   -3.4803    0.4002 H   0  0  0  1  0  0  0  0  0  0  0  0
    1.9731   -0.5305   -0.0967 C   0  0  0  1  0  0  0  0  0  0  0  0
    2.6991   -0.3468   -0.8610 H   0  0  0  1  0  0  0  0  0  0  0  0
    1.8970    0.6285    0.7934 N   0  0  0  1  0  0  0  0  0  0  0  0
    2.7152    1.7162    0.7969 C   0  0  0  1  0  0  0  0  0  0  0  0
    3.5028    1.8257    0.1265 H   0  0  0  1  0  0  0  0  0  0  0  0
    2.4370    2.6116    1.7050 N   0  0  0  1  0  0  0  0  0  0  0  0
    1.3347    2.0811    2.3570 C   0  0  0  1  0  0  0  0  0  0  0  0
    0.5416    2.5008    3.4209 C   0  0  0  1  0  0  0  0  0  0  0  0
    0.7502    3.6781    4.0896 N   0  0  0  1  0  0  0  0  0  0  0  0
    0.2515    3.8700    4.9111 H   0  0  0  1  0  0  0  0  0  0  0  0
    1.3982    4.3284    3.7466 H   0  0  0  1  0  0  0  0  0  0  0  0
   -0.4780    1.7378    3.8291 N   0  0  0  1  0  0  0  0  0  0  0  0
   -0.6872    0.5741    3.1935 C   0  0  0  1  0  0  0  0  0  0  0  0
   -1.4866    0.0080    3.5431 H   0  0  0  1  0  0  0  0  0  0  0  0
   -0.0116    0.0483    2.1791 N   0  0  0  1  0  0  0  0  0  0  0  0
    0.9876    0.8446    1.7963 C   0  0  0  1  0  0  0  0  0  0  0  0
  1  2  1  0  0  0  0
  1  3  1  0  0  0  0
  1  4  1  0  0  0  0
  1  5  1  0  0  0  0
  5  6  1  0  0  0  0
  5  7  1  0  0  0  0
  5 10  1  0  0  0  0
  7  8  1  0  0  0  0
  7  9  2  0  0  0  0
 10 11  1  0  0  0  0
 10 12  1  0  0  0  0
 10 13  1  0  0  0  0
 13 14  1  0  0  0  0
 13 15  1  0  0  0  0
 13 16  1  0  0  0  0
 16 17  1  0  0  0  0
 16 21  1  0  0  0  0
 17 18  1  0  0  0  0
 17 19  1  0  0  0  0
 17 20  1  0  0  0  0
 21 22  1  0  0  0  0
 21 23  1  0  0  0  0
 21 24  1  0  0  0  0
 24 25  1  0  0  0  0
 24 26  1  0  0  0  0
 24 27  1  0  0  0  0
 26 35  1  0  0  0  0
 27 28  1  0  0  0  0
 27 29  1  0  0  0  0
 27 31  1  0  0  0  0
 29 30  1  0  0  0  0
 31 32  1  0  0  0  0
 31 33  1  0  0  0  0
 31 35  1  0  0  0  0
 33 34  1  0  0  0  0
 35 36  1  0  0  0  0
 35 37  1  0  0  0  0
 37 38  1  0  0  0  0
 37 50  1  0  0  0  0
 38 39  1  0  0  0  0
 38 40  2  0  0  0  0
 40 41  1  0  0  0  0
 41 42  1  0  0  0  0
 41 50  2  0  0  0  0
 42 43  1  0  0  0  0
 42 46  2  0  0  0  0
 43 44  1  0  0  0  0
 43 45  1  0  0  0  0
 46 47  1  0  0  0  0
 47 48  1  0  0  0  0
 47 49  2  0  0  0  0
 49 50  1  0  0  0  0
M  END
> <ConfClashScore>
0 

> <ConfOneFourInteractionScore>
-0.970453 

> <ConfScore>
0.0489867 

> <ConfScorePBest>
0.00685847 

> <ConfTolerance>
1.25906 

$$$$
SAM.****
  PyMOL2.4          3D                             0

 50 52  0  0  0  0  0  0  0  0999 V2000
   -2.6449    2.3725    4.5236 N   0  3  0  1  0  0  0  0  0  0  0  0
   -1.6678    2.7299    4.3822 H   0  0  0  1  0  0  0  0  0  0  0  0
   -2.9190    2.4925    5.5301 H   0  0  0  1  0  0  0  0  0  0  0  0
   -3.3067    2.9130    3.9133 H   0  0  0  1  0  0  0  0  0  0  0  0
   -2.7036    0.9280    4.1619 C   0  0  0  1  0  0  0  0  0  0  0  0
   -3.6655    0.5319    4.4125 H   0  0  0  1  0  0  0  0  0  0  0  0
   -1.6575    0.1976    4.9315 C   0  0  0  1  0  0  0  0  0  0  0  0
   -1.8442   -1.1486    4.8814 O   0  5  0  1  0  0  0  0  0  0  0  0
   -0.7415    0.7302    5.5362 O   0  0  0  1  0  0  0  0  0  0  0  0
   -2.4939    0.8288    2.6632 C   0  0  0  1  0  0  0  0  0  0  0  0
   -1.6331    1.4124    2.4115 H   0  0  0  1  0  0  0  0  0  0  0  0
   -3.3569    1.2391    2.1818 H   0  0  0  1  0  0  0  0  0  0  0  0
   -2.2728   -0.6286    2.1039 C   0  0  0  1  0  0  0  0  0  0  0  0
   -3.1657   -1.2117    2.1907 H   0  0  0  1  0  0  0  0  0  0  0  0
   -1.4740   -1.1196    2.6193 H   0  0  0  1  0  0  0  0  0  0  0  0
   -1.8541   -0.3530    0.3921 S   0  3  0  1  0  0  0  0  0  0  0  0
   -3.4678   -0.3640   -0.3728 C   0  0  0  1  0  0  0  0  0  0  0  0
   -3.4395   -0.9645   -1.2579 H   0  0  0  1  0  0  0  0  0  0  0  0
   -3.7474    0.6364   -0.6295 H   0  0  0  1  0  0  0  0  0  0  0  0
   -4.1835   -0.7706    0.3109 H   0  0  0  1  0  0  0  0  0  0  0  0
   -1.2167   -1.9685   -0.0901 C   0  0  0  1  0  0  0  0  0  0  0  0
   -1.7345   -2.2644   -0.9785 H   0  0  0  1  0  0  0  0  0  0  0  0
   -1.4455   -2.6517    0.7009 H   0  0  0  1  0  0  0  0  0  0  0  0
    0.2630   -2.0823   -0.3710 C   0  0  0  1  0  0  0  0  0  0  0  0
    0.4262   -2.8119   -1.1366 H   0  0  0  1  0  0  0  0  0  0  0  0
    0.8097   -0.7946   -0.7661 O   0  0  0  1  0  0  0  0  0  0  0  0
    1.0248   -2.4562    0.8998 C   0  0  0  1  0  0  0  0  0  0  0  0
    0.5507   -2.0557    1.7714 H   0  0  0  1  0  0  0  0  0  0  0  0
    1.1501   -3.8613    1.0330 O   0  0  0  1  0  0  0  0  0  0  0  0
    0.2915   -4.2422    1.2313 H   0  0  0  1  0  0  0  0  0  0  0  0
    2.3617   -1.8059    0.6531 C   0  0  0  1  0  0  0  0  0  0  0  0
    2.8816   -1.6292    1.5714 H   0  0  0  1  0  0  0  0  0  0  0  0
    3.1739   -2.6047   -0.2085 O   0  0  0  1  0  0  0  0  0  0  0  0
    3.0561   -3.5322    0.0091 H   0  0  0  1  0  0  0  0  0  0  0  0
    1.9694   -0.5010   -0.0159 C   0  0  0  1  0  0  0  0  0  0  0  0
    2.7539   -0.1600   -0.6586 H   0  0  0  1  0  0  0  0  0  0  0  0
    1.6823    0.5217    0.9888 N   0  0  0  1  0  0  0  0  0  0  0  0
    1.6966    0.3708    2.3415 C   0  0  0  1  0  0  0  0  0  0  0  0
    1.9325   -0.5319    2.8009 H   0  0  0  1  0  0  0  0  0  0  0  0
    1.3921    1.4444    3.0185 N   0  0  0  1  0  0  0  0  0  0  0  0
    1.1636    2.3944    2.0353 C   0  0  0  1  0  0  0  0  0  0  0  0
    0.7940    3.7361    2.0494 C   0  0  0  1  0  0  0  0  0  0  0  0
    0.6371    4.5202    3.2040 N   0  0  0  1  0  0  0  0  0  0  0  0
    0.6832    4.1031    4.0896 H   0  0  0  1  0  0  0  0  0  0  0  0
    0.4816    5.4845    3.1241 H   0  0  0  1  0  0  0  0  0  0  0  0
    0.6466    4.3954    0.8952 N   0  0  0  1  0  0  0  0  0  0  0  0
    0.8513    3.7195   -0.2464 C   0  0  0  1  0  0  0  0  0  0  0  0
    0.7228    4.2659   -1.1219 H   0  0  0  1  0  0  0  0  0  0  0  0
    1.1956    2.4478   -0.4086 N   0  0  0  1  0  0  0  0  0  0  0  0
    1.3429    1.8311    0.7647 C   0  0  0  1  0  0  0  0  0  0  0  0
  1  2  1  0  0  0  0
  1  3  1  0  0  0  0
  1  4  1  0  0  0  0
  1  5  1  0  0  0  0
  5  6  1  0  0  0  0
  5  7  1  0  0  0  0
  5 10  1  0  0  0  0
  7  8  1  0  0  0  0
  7  9  2  0  0  0  0
 10 11  1  0  0  0  0
 10 12  1  0  0  0  0
 10 13  1  0  0  0  0
 13 14  1  0  0  0  0
 13 15  1  0  0  0  0
 13 16  1  0  0  0  0
 16 17  1  0  0  0  0
 16 21  1  0  0  0  0
 17 18  1  0  0  0  0
 17 19  1  0  0  0  0
 17 20  1  0  0  0  0
 21 22  1  0  0  0  0
 21 23  1  0  0  0  0
 21 24  1  0  0  0  0
 24 25  1  0  0  0  0
 24 26  1  0  0  0  0
 24 27  1  0  0  0  0
 26 35  1  0  0  0  0
 27 28  1  0  0  0  0
 27 29  1  0  0  0  0
 27 31  1  0  0  0  0
 29 30  1  0  0  0  0
 31 32  1  0  0  0  0
 31 33  1  0  0  0  0
 31 35  1  0  0  0  0
 33 34  1  0  0  0  0
 35 36  1  0  0  0  0
 35 37  1  0  0  0  0
 37 38  1  0  0  0  0
 37 50  1  0  0  0  0
 38 39  1  0  0  0  0
 38 40  2  0  0  0  0
 40 41  1  0  0  0  0
 41 42  1  0  0  0  0
 41 50  2  0  0  0  0
 42 43  1  0  0  0  0
 42 46  2  0  0  0  0
 43 44  1  0  0  0  0
 43 45  1  0  0  0  0
 46 47  1  0  0  0  0
 47 48  1  0  0  0  0
 47 49  2  0  0  0  0
 49 50  1  0  0  0  0
M  END
> <ConfClashScore>
0 

> <ConfOneFourInteractionScore>
-0.976712 

> <ConfScore>
0.0533777 

> <ConfScorePBest>
0.00675547 

> <ConfTolerance>
1.77331 

$$$$
SAM.****
  PyMOL2.4          3D                             0

 50 52  0  0  0  0  0  0  0  0999 V2000
   -5.1490    3.0693    1.3396 N   0  3  0  1  0  0  0  0  0  0  0  0
   -5.9630    3.4114    1.9079 H   0  0  0  1  0  0  0  0  0  0  0  0
   -5.1928    3.4887    0.3781 H   0  0  0  1  0  0  0  0  0  0  0  0
   -4.2525    3.3544    1.8059 H   0  0  0  1  0  0  0  0  0  0  0  0
   -5.2044    1.5726    1.2354 C   0  0  0  1  0  0  0  0  0  0  0  0
   -5.9464    1.3188    0.5074 H   0  0  0  1  0  0  0  0  0  0  0  0
   -5.5836    0.9251    2.5226 C   0  0  0  1  0  0  0  0  0  0  0  0
   -6.2096   -0.2688    2.3431 O   0  5  0  1  0  0  0  0  0  0  0  0
   -5.3452    1.4349    3.6051 O   0  0  0  1  0  0  0  0  0  0  0  0
   -3.8632    1.0978    0.7102 C   0  0  0  1  0  0  0  0  0  0  0  0
   -3.1016    1.4090    1.3943 H   0  0  0  1  0  0  0  0  0  0  0  0
   -3.6929    1.5507   -0.2441 H   0  0  0  1  0  0  0  0  0  0  0  0
   -3.7802   -0.3917    0.5514 C   0  0  0  1  0  0  0  0  0  0  0  0
   -4.5799   -0.5388   -0.1441 H   0  0  0  1  0  0  0  0  0  0  0  0
   -4.0974   -0.6902    1.5288 H   0  0  0  1  0  0  0  0  0  0  0  0
   -2.7654   -1.7972    0.1314 S   0  3  0  1  0  0  0  0  0  0  0  0
   -3.2370   -2.9667    1.4013 C   0  0  0  1  0  0  0  0  0  0  0  0
   -2.4329   -3.6516    1.5724 H   0  0  0  1  0  0  0  0  0  0  0  0
   -4.1041   -3.5072    1.0838 H   0  0  0  1  0  0  0  0  0  0  0  0
   -3.4559   -2.4405    2.3069 H   0  0  0  1  0  0  0  0  0  0  0  0
   -1.1357   -1.2603    0.7212 C   0  0  0  1  0  0  0  0  0  0  0  0
   -1.0094   -1.5755    1.7359 H   0  0  0  1  0  0  0  0  0  0  0  0
   -1.0788   -0.1931    0.6690 H   0  0  0  1  0  0  0  0  0  0  0  0
   -0.0331   -1.8556   -0.1220 C   0  0  0  1  0  0  0  0  0  0  0  0
   -0.4611   -2.4530   -0.8997 H   0  0  0  1  0  0  0  0  0  0  0  0
    0.7806   -0.8120   -0.6865 O   0  0  0  1  0  0  0  0  0  0  0  0
    0.9091   -2.7149    0.7569 C   0  0  0  1  0  0  0  0  0  0  0  0
    0.4340   -2.9912    1.6749 H   0  0  0  1  0  0  0  0  0  0  0  0
    1.3279   -3.8915    0.0638 O   0  0  0  1  0  0  0  0  0  0  0  0
    0.5862   -4.4952   -0.0200 H   0  0  0  1  0  0  0  0  0  0  0  0
    2.0803   -1.7812    1.0067 C   0  0  0  1  0  0  0  0  0  0  0  0
    1.9112   -1.1721    1.8700 H   0  0  0  1  0  0  0  0  0  0  0  0
    3.2971   -2.5127    1.1699 O   0  0  0  1  0  0  0  0  0  0  0  0
    3.9980   -2.0836    0.6737 H   0  0  0  1  0  0  0  0  0  0  0  0
    2.1114   -0.9319   -0.2739 C   0  0  0  1  0  0  0  0  0  0  0  0
    2.6927   -1.4185   -1.0290 H   0  0  0  1  0  0  0  0  0  0  0  0
    2.6795    0.3896    0.0049 N   0  0  0  1  0  0  0  0  0  0  0  0
    3.5866    1.0691   -0.7489 C   0  0  0  1  0  0  0  0  0  0  0  0
    3.9695    0.6908   -1.6388 H   0  0  0  1  0  0  0  0  0  0  0  0
    3.9397    2.2312   -0.2708 N   0  0  0  1  0  0  0  0  0  0  0  0
    3.1995    2.3407    0.8961 C   0  0  0  1  0  0  0  0  0  0  0  0
    3.0948    3.3075    1.8918 C   0  0  0  1  0  0  0  0  0  0  0  0
    3.8038    4.4732    1.8749 N   0  0  0  1  0  0  0  0  0  0  0  0
    3.7553    5.0872    2.6372 H   0  0  0  1  0  0  0  0  0  0  0  0
    4.3614    4.6964    1.1006 H   0  0  0  1  0  0  0  0  0  0  0  0
    2.2680    3.1092    2.9241 N   0  0  0  1  0  0  0  0  0  0  0  0
    1.5738    1.9609    2.9630 C   0  0  0  1  0  0  0  0  0  0  0  0
    0.9455    1.8428    3.7833 H   0  0  0  1  0  0  0  0  0  0  0  0
    1.5811    0.9559    2.0960 N   0  0  0  1  0  0  0  0  0  0  0  0
    2.4084    1.1984    1.0783 C   0  0  0  1  0  0  0  0  0  0  0  0
  1  2  1  0  0  0  0
  1  3  1  0  0  0  0
  1  4  1  0  0  0  0
  1  5  1  0  0  0  0
  5  6  1  0  0  0  0
  5  7  1  0  0  0  0
  5 10  1  0  0  0  0
  7  8  1  0  0  0  0
  7  9  2  0  0  0  0
 10 11  1  0  0  0  0
 10 12  1  0  0  0  0
 10 13  1  0  0  0  0
 13 14  1  0  0  0  0
 13 15  1  0  0  0  0
 13 16  1  0  0  0  0
 16 17  1  0  0  0  0
 16 21  1  0  0  0  0
 17 18  1  0  0  0  0
 17 19  1  0  0  0  0
 17 20  1  0  0  0  0
 21 22  1  0  0  0  0
 21 23  1  0  0  0  0
 21 24  1  0  0  0  0
 24 25  1  0  0  0  0
 24 26  1  0  0  0  0
 24 27  1  0  0  0  0
 26 35  1  0  0  0  0
 27 28  1  0  0  0  0
 27 29  1  0  0  0  0
 27 31  1  0  0  0  0
 29 30  1  0  0  0  0
 31 32  1  0  0  0  0
 31 33  1  0  0  0  0
 31 35  1  0  0  0  0
 33 34  1  0  0  0  0
 35 36  1  0  0  0  0
 35 37  1  0  0  0  0
 37 38  1  0  0  0  0
 37 50  1  0  0  0  0
 38 39  1  0  0  0  0
 38 40  2  0  0  0  0
 40 41  1  0  0  0  0
 41 42  1  0  0  0  0
 41 50  2  0  0  0  0
 42 43  1  0  0  0  0
 42 46  2  0  0  0  0
 43 44  1  0  0  0  0
 43 45  1  0  0  0  0
 46 47  1  0  0  0  0
 47 48  1  0  0  0  0
 47 49  2  0  0  0  0
 49 50  1  0  0  0  0
M  END
> <ConfClashScore>
0 

> <ConfOneFourInteractionScore>
-0.979454 

> <ConfScore>
0.0537748 

> <ConfScorePBest>
0.00665247 

> <ConfTolerance>
1.37291 

$$$$
SAM.****
  PyMOL2.4          3D                             0

 50 52  0  0  0  0  0  0  0  0999 V2000
   -5.5473   -0.7803    5.5181 N   0  3  0  1  0  0  0  0  0  0  0  0
   -6.2947   -1.4560    5.8138 H   0  0  0  1  0  0  0  0  0  0  0  0
   -5.9920    0.0608    5.0739 H   0  0  0  1  0  0  0  0  0  0  0  0
   -4.9938   -0.4813    6.3587 H   0  0  0  1  0  0  0  0  0  0  0  0
   -4.6410   -1.4396    4.5359 C   0  0  0  1  0  0  0  0  0  0  0  0
   -5.1769   -2.2518    4.0909 H   0  0  0  1  0  0  0  0  0  0  0  0
   -3.4814   -2.0208    5.2692 C   0  0  0  1  0  0  0  0  0  0  0  0
   -2.7699   -2.9635    4.5949 O   0  5  0  1  0  0  0  0  0  0  0  0
   -3.1976   -1.6662    6.4015 O   0  0  0  1  0  0  0  0  0  0  0  0
   -4.2480   -0.4867    3.4175 C   0  0  0  1  0  0  0  0  0  0  0  0
   -3.6524    0.3041    3.8234 H   0  0  0  1  0  0  0  0  0  0  0  0
   -5.1335   -0.0774    2.9779 H   0  0  0  1  0  0  0  0  0  0  0  0
   -3.4601   -1.2032    2.3607 C   0  0  0  1  0  0  0  0  0  0  0  0
   -3.3968   -0.4237    1.6305 H   0  0  0  1  0  0  0  0  0  0  0  0
   -4.1912   -1.9216    2.0538 H   0  0  0  1  0  0  0  0  0  0  0  0
   -1.9671   -2.1103    1.9527 S   0  3  0  1  0  0  0  0  0  0  0  0
   -0.8606   -1.7672    3.3358 C   0  0  0  1  0  0  0  0  0  0  0  0
   -1.3802   -1.1946    4.0754 H   0  0  0  1  0  0  0  0  0  0  0  0
   -0.0142   -1.2136    2.9862 H   0  0  0  1  0  0  0  0  0  0  0  0
   -0.5310   -2.6898    3.7660 H   0  0  0  1  0  0  0  0  0  0  0  0
   -1.1902   -1.1340    0.6575 C   0  0  0  1  0  0  0  0  0  0  0  0
   -0.7733   -0.2636    1.1197 H   0  0  0  1  0  0  0  0  0  0  0  0
   -1.9588   -0.8415   -0.0270 H   0  0  0  1  0  0  0  0  0  0  0  0
   -0.0988   -1.7830   -0.1437 C   0  0  0  1  0  0  0  0  0  0  0  0
   -0.5314   -2.3710   -0.9260 H   0  0  0  1  0  0  0  0  0  0  0  0
    0.7743   -0.7826   -0.6976 O   0  0  0  1  0  0  0  0  0  0  0  0
    0.7812   -2.6711    0.7702 C   0  0  0  1  0  0  0  0  0  0  0  0
    0.2702   -2.9152    1.6781 H   0  0  0  1  0  0  0  0  0  0  0  0
    1.1659   -3.8701    0.1039 O   0  0  0  1  0  0  0  0  0  0  0  0
    2.1238   -3.9297    0.0790 H   0  0  0  1  0  0  0  0  0  0  0  0
    1.9849   -1.7858    1.0413 C   0  0  0  1  0  0  0  0  0  0  0  0
    1.8194   -1.1592    1.8927 H   0  0  0  1  0  0  0  0  0  0  0  0
    3.1633   -2.5667    1.2459 O   0  0  0  1  0  0  0  0  0  0  0  0
    3.4585   -2.9271    0.4066 H   0  0  0  1  0  0  0  0  0  0  0  0
    2.0871   -0.9547   -0.2474 C   0  0  0  1  0  0  0  0  0  0  0  0
    2.6667   -1.4753   -0.9809 H   0  0  0  1  0  0  0  0  0  0  0  0
    2.7031    0.3416    0.0312 N   0  0  0  1  0  0  0  0  0  0  0  0
    2.1102    1.5635   -0.0590 C   0  0  0  1  0  0  0  0  0  0  0  0
    1.1819    1.7029   -0.5068 H   0  0  0  1  0  0  0  0  0  0  0  0
    2.7944    2.5472    0.4588 N   0  0  0  1  0  0  0  0  0  0  0  0
    3.9363    1.9286    0.9433 C   0  0  0  1  0  0  0  0  0  0  0  0
    5.0803    2.3776    1.5966 C   0  0  0  1  0  0  0  0  0  0  0  0
    5.2910    3.6931    1.9157 N   0  0  0  1  0  0  0  0  0  0  0  0
    6.1605    3.9791    2.2659 H   0  0  0  1  0  0  0  0  0  0  0  0
    4.5723    4.3481    1.7938 H   0  0  0  1  0  0  0  0  0  0  0  0
    6.0335    1.5046    1.9399 N   0  0  0  1  0  0  0  0  0  0  0  0
    5.8489    0.2136    1.6217 C   0  0  0  1  0  0  0  0  0  0  0  0
    6.6141   -0.4326    1.9018 H   0  0  0  1  0  0  0  0  0  0  0  0
    4.8215   -0.3496    0.9978 N   0  0  0  1  0  0  0  0  0  0  0  0
    3.8904    0.5522    0.6837 C   0  0  0  1  0  0  0  0  0  0  0  0
  1  2  1  0  0  0  0
  1  3  1  0  0  0  0
  1  4  1  0  0  0  0
  1  5  1  0  0  0  0
  5  6  1  0  0  0  0
  5  7  1  0  0  0  0
  5 10  1  0  0  0  0
  7  8  1  0  0  0  0
  7  9  2  0  0  0  0
 10 11  1  0  0  0  0
 10 12  1  0  0  0  0
 10 13  1  0  0  0  0
 13 14  1  0  0  0  0
 13 15  1  0  0  0  0
 13 16  1  0  0  0  0
 16 17  1  0  0  0  0
 16 21  1  0  0  0  0
 17 18  1  0  0  0  0
 17 19  1  0  0  0  0
 17 20  1  0  0  0  0
 21 22  1  0  0  0  0
 21 23  1  0  0  0  0
 21 24  1  0  0  0  0
 24 25  1  0  0  0  0
 24 26  1  0  0  0  0
 24 27  1  0  0  0  0
 26 35  1  0  0  0  0
 27 28  1  0  0  0  0
 27 29  1  0  0  0  0
 27 31  1  0  0  0  0
 29 30  1  0  0  0  0
 31 32  1  0  0  0  0
 31 33  1  0  0  0  0
 31 35  1  0  0  0  0
 33 34  1  0  0  0  0
 35 36  1  0  0  0  0
 35 37  1  0  0  0  0
 37 38  1  0  0  0  0
 37 50  1  0  0  0  0
 38 39  1  0  0  0  0
 38 40  2  0  0  0  0
 40 41  1  0  0  0  0
 41 42  1  0  0  0  0
 41 50  2  0  0  0  0
 42 43  1  0  0  0  0
 42 46  2  0  0  0  0
 43 44  1  0  0  0  0
 43 45  1  0  0  0  0
 46 47  1  0  0  0  0
 47 48  1  0  0  0  0
 47 49  2  0  0  0  0
 49 50  1  0  0  0  0
M  END
> <ConfClashScore>
0 

> <ConfOneFourInteractionScore>
-0.96384 

> <ConfScore>
0.0540419 

> <ConfScorePBest>
0.00654947 

> <ConfTolerance>
1.36935 

$$$$
SAM.****
  PyMOL2.4          3D                             0

 50 52  0  0  0  0  0  0  0  0999 V2000
   -0.6263   -2.1653   -4.6910 N   0  3  0  1  0  0  0  0  0  0  0  0
    0.3175   -2.4943   -5.0127 H   0  0  0  1  0  0  0  0  0  0  0  0
   -1.3167   -2.2618   -5.4763 H   0  0  0  1  0  0  0  0  0  0  0  0
   -0.9400   -2.7468   -3.8750 H   0  0  0  1  0  0  0  0  0  0  0  0
   -0.5407   -0.7363   -4.2784 C   0  0  0  1  0  0  0  0  0  0  0  0
   -1.3311   -0.2060   -4.7673 H   0  0  0  1  0  0  0  0  0  0  0  0
    0.7463   -0.2186   -4.8221 C   0  0  0  1  0  0  0  0  0  0  0  0
    0.7591    1.1402   -4.8763 O   0  5  0  1  0  0  0  0  0  0  0  0
    1.6808   -0.9174   -5.1782 O   0  0  0  1  0  0  0  0  0  0  0  0
   -0.7196   -0.5427   -2.7800 C   0  0  0  1  0  0  0  0  0  0  0  0
   -0.6779    0.5048   -2.5659 H   0  0  0  1  0  0  0  0  0  0  0  0
    0.0808   -1.0425   -2.2755 H   0  0  0  1  0  0  0  0  0  0  0  0
   -2.0206   -1.0833   -2.2611 C   0  0  0  1  0  0  0  0  0  0  0  0
   -1.9827   -2.1488   -2.3508 H   0  0  0  1  0  0  0  0  0  0  0  0
   -2.7988   -0.6996   -2.8872 H   0  0  0  1  0  0  0  0  0  0  0  0
   -2.4637   -0.7017   -0.5561 S   0  3  0  1  0  0  0  0  0  0  0  0
   -1.7721    0.9408   -0.4421 C   0  0  0  1  0  0  0  0  0  0  0  0
   -0.7816    0.8843   -0.0413 H   0  0  0  1  0  0  0  0  0  0  0  0
   -2.3826    1.5409    0.1999 H   0  0  0  1  0  0  0  0  0  0  0  0
   -1.7376    1.3815   -1.4165 H   0  0  0  1  0  0  0  0  0  0  0  0
   -1.3208   -1.6762    0.4497 C   0  0  0  1  0  0  0  0  0  0  0  0
   -1.7610   -2.6373    0.6153 H   0  0  0  1  0  0  0  0  0  0  0  0
   -1.1933   -1.1755    1.3867 H   0  0  0  1  0  0  0  0  0  0  0  0
    0.0454   -1.8851   -0.1597 C   0  0  0  1  0  0  0  0  0  0  0  0
   -0.0493   -2.4496   -1.0638 H   0  0  0  1  0  0  0  0  0  0  0  0
    0.6595   -0.6150   -0.4358 O   0  0  0  1  0  0  0  0  0  0  0  0
    0.9567   -2.6314    0.8340 C   0  0  0  1  0  0  0  0  0  0  0  0
    0.4474   -2.8072    1.7584 H   0  0  0  1  0  0  0  0  0  0  0  0
    1.3932   -3.8760    0.2858 O   0  0  0  1  0  0  0  0  0  0  0  0
    0.6359   -4.4510    0.1534 H   0  0  0  1  0  0  0  0  0  0  0  0
    2.1566   -1.6689    1.0401 C   0  0  0  1  0  0  0  0  0  0  0  0
    2.0404   -1.0887    1.9316 H   0  0  0  1  0  0  0  0  0  0  0  0
    3.3923   -2.3846    1.0945 O   0  0  0  1  0  0  0  0  0  0  0  0
    3.4837   -2.9263    0.3073 H   0  0  0  1  0  0  0  0  0  0  0  0
    2.0779   -0.7775   -0.2257 C   0  0  0  1  0  0  0  0  0  0  0  0
    2.5354   -1.2615   -1.0631 H   0  0  0  1  0  0  0  0  0  0  0  0
    2.7238    0.5152    0.0043 N   0  0  0  1  0  0  0  0  0  0  0  0
    3.6502    1.0886   -0.8116 C   0  0  0  1  0  0  0  0  0  0  0  0
    4.0280    0.6082   -1.6531 H   0  0  0  1  0  0  0  0  0  0  0  0
    4.0287    2.2868   -0.4583 N   0  0  0  1  0  0  0  0  0  0  0  0
    3.2860    2.5380    0.6848 C   0  0  0  1  0  0  0  0  0  0  0  0
    3.1998    3.6083    1.5703 C   0  0  0  1  0  0  0  0  0  0  0  0
    4.0059    4.7439    1.4915 N   0  0  0  1  0  0  0  0  0  0  0  0
    4.0267    5.3826    2.2346 H   0  0  0  1  0  0  0  0  0  0  0  0
    4.5514    4.9032    0.6931 H   0  0  0  1  0  0  0  0  0  0  0  0
    2.3639    3.5412    2.6121 N   0  0  0  1  0  0  0  0  0  0  0  0
    1.6424    2.4201    2.7690 C   0  0  0  1  0  0  0  0  0  0  0  0
    1.0077    2.4053    3.5927 H   0  0  0  1  0  0  0  0  0  0  0  0
    1.6296    1.3280    2.0147 N   0  0  0  1  0  0  0  0  0  0  0  0
    2.4671    1.4406    0.9828 C   0  0  0  1  0  0  0  0  0  0  0  0
  1  2  1  0  0  0  0
  1  3  1  0  0  0  0
  1  4  1  0  0  0  0
  1  5  1  0  0  0  0
  5  6  1  0  0  0  0
  5  7  1  0  0  0  0
  5 10  1  0  0  0  0
  7  8  1  0  0  0  0
  7  9  2  0  0  0  0
 10 11  1  0  0  0  0
 10 12  1  0  0  0  0
 10 13  1  0  0  0  0
 13 14  1  0  0  0  0
 13 15  1  0  0  0  0
 13 16  1  0  0  0  0
 16 17  1  0  0  0  0
 16 21  1  0  0  0  0
 17 18  1  0  0  0  0
 17 19  1  0  0  0  0
 17 20  1  0  0  0  0
 21 22  1  0  0  0  0
 21 23  1  0  0  0  0
 21 24  1  0  0  0  0
 24 25  1  0  0  0  0
 24 26  1  0  0  0  0
 24 27  1  0  0  0  0
 26 35  1  0  0  0  0
 27 28  1  0  0  0  0
 27 29  1  0  0  0  0
 27 31  1  0  0  0  0
 29 30  1  0  0  0  0
 31 32  1  0  0  0  0
 31 33  1  0  0  0  0
 31 35  1  0  0  0  0
 33 34  1  0  0  0  0
 35 36  1  0  0  0  0
 35 37  1  0  0  0  0
 37 38  1  0  0  0  0
 37 50  1  0  0  0  0
 38 39  1  0  0  0  0
 38 40  2  0  0  0  0
 40 41  1  0  0  0  0
 41 42  1  0  0  0  0
 41 50  2  0  0  0  0
 42 43  1  0  0  0  0
 42 46  2  0  0  0  0
 43 44  1  0  0  0  0
 43 45  1  0  0  0  0
 46 47  1  0  0  0  0
 47 48  1  0  0  0  0
 47 49  2  0  0  0  0
 49 50  1  0  0  0  0
M  END
> <ConfClashScore>
0.00049314 

> <ConfOneFourInteractionScore>
-0.988075 

> <ConfScore>
0.0550816 

> <ConfScorePBest>
0.00644647 

> <ConfTolerance>
1.312 

$$$$
SAM.****
  PyMOL2.4          3D                             0

 50 52  0  0  0  0  0  0  0  0999 V2000
   -4.7922    0.3142   -4.2257 N   0  3  0  1  0  0  0  0  0  0  0  0
   -4.4519    0.7735   -3.3450 H   0  0  0  1  0  0  0  0  0  0  0  0
   -5.6514   -0.2517   -4.0157 H   0  0  0  1  0  0  0  0  0  0  0  0
   -5.0229    1.0507   -4.9376 H   0  0  0  1  0  0  0  0  0  0  0  0
   -3.7274   -0.5806   -4.7639 C   0  0  0  1  0  0  0  0  0  0  0  0
   -2.8527    0.0063   -4.9519 H   0  0  0  1  0  0  0  0  0  0  0  0
   -4.1752   -1.1705   -6.0569 C   0  0  0  1  0  0  0  0  0  0  0  0
   -3.1730   -1.8791   -6.6425 O   0  5  0  1  0  0  0  0  0  0  0  0
   -5.2781   -1.0641   -6.5674 O   0  0  0  1  0  0  0  0  0  0  0  0
   -3.3690   -1.6468   -3.7586 C   0  0  0  1  0  0  0  0  0  0  0  0
   -2.6559   -2.3022   -4.2133 H   0  0  0  1  0  0  0  0  0  0  0  0
   -4.2591   -2.1933   -3.5263 H   0  0  0  1  0  0  0  0  0  0  0  0
   -2.7766   -1.1433   -2.4559 C   0  0  0  1  0  0  0  0  0  0  0  0
   -3.4815   -0.5095   -1.9595 H   0  0  0  1  0  0  0  0  0  0  0  0
   -1.8805   -0.5936   -2.6551 H   0  0  0  1  0  0  0  0  0  0  0  0
   -2.4034   -2.5515   -1.4268 S   0  3  0  1  0  0  0  0  0  0  0  0
   -3.9381   -2.7492   -0.5268 C   0  0  0  1  0  0  0  0  0  0  0  0
   -4.6807   -2.0989   -0.9398 H   0  0  0  1  0  0  0  0  0  0  0  0
   -3.7817   -2.5031    0.5028 H   0  0  0  1  0  0  0  0  0  0  0  0
   -4.2692   -3.7636   -0.6053 H   0  0  0  1  0  0  0  0  0  0  0  0
   -1.3398   -1.8100   -0.1672 C   0  0  0  1  0  0  0  0  0  0  0  0
   -1.5734   -2.2635    0.7734 H   0  0  0  1  0  0  0  0  0  0  0  0
   -1.5576   -0.7634   -0.1230 H   0  0  0  1  0  0  0  0  0  0  0  0
    0.1437   -1.9707   -0.4100 C   0  0  0  1  0  0  0  0  0  0  0  0
    0.3004   -2.6045   -1.2578 H   0  0  0  1  0  0  0  0  0  0  0  0
    0.7533   -0.7233   -0.6032 O   0  0  0  1  0  0  0  0  0  0  0  0
    0.8395   -2.5436    0.8332 C   0  0  0  1  0  0  0  0  0  0  0  0
    0.3778   -2.1895    1.7312 H   0  0  0  1  0  0  0  0  0  0  0  0
    0.8235   -3.9718    0.8201 O   0  0  0  1  0  0  0  0  0  0  0  0
    0.5830   -4.2976    1.6905 H   0  0  0  1  0  0  0  0  0  0  0  0
    2.2435   -2.0150    0.6996 C   0  0  0  1  0  0  0  0  0  0  0  0
    2.7112   -1.9217    1.6575 H   0  0  0  1  0  0  0  0  0  0  0  0
    3.0328   -2.8631   -0.1358 O   0  0  0  1  0  0  0  0  0  0  0  0
    3.8264   -2.3963   -0.4078 H   0  0  0  1  0  0  0  0  0  0  0  0
    2.0390   -0.6422    0.0521 C   0  0  0  1  0  0  0  0  0  0  0  0
    2.8121   -0.4443   -0.6607 H   0  0  0  1  0  0  0  0  0  0  0  0
    2.0317    0.4095    1.0694 N   0  0  0  1  0  0  0  0  0  0  0  0
    2.9181    0.5713    2.0895 C   0  0  0  1  0  0  0  0  0  0  0  0
    3.7239   -0.0694    2.2370 H   0  0  0  1  0  0  0  0  0  0  0  0
    2.6807    1.5913    2.8688 N   0  0  0  1  0  0  0  0  0  0  0  0
    1.5451    2.1637    2.3172 C   0  0  0  1  0  0  0  0  0  0  0  0
    0.7544    3.2611    2.6453 C   0  0  0  1  0  0  0  0  0  0  0  0
    1.0645    4.1301    3.6785 N   0  0  0  1  0  0  0  0  0  0  0  0
    0.5249    4.9359    3.8197 H   0  0  0  1  0  0  0  0  0  0  0  0
    1.8235    3.9392    4.2683 H   0  0  0  1  0  0  0  0  0  0  0  0
   -0.3105    3.5596    1.8932 N   0  0  0  1  0  0  0  0  0  0  0  0
   -0.5832    2.7663    0.8452 C   0  0  0  1  0  0  0  0  0  0  0  0
   -1.4212    3.0291    0.2882 H   0  0  0  1  0  0  0  0  0  0  0  0
    0.0723    1.6917    0.4239 N   0  0  0  1  0  0  0  0  0  0  0  0
    1.1314    1.4361    1.1933 C   0  0  0  1  0  0  0  0  0  0  0  0
  1  2  1  0  0  0  0
  1  3  1  0  0  0  0
  1  4  1  0  0  0  0
  1  5  1  0  0  0  0
  5  6  1  0  0  0  0
  5  7  1  0  0  0  0
  5 10  1  0  0  0  0
  7  8  1  0  0  0  0
  7  9  2  0  0  0  0
 10 11  1  0  0  0  0
 10 12  1  0  0  0  0
 10 13  1  0  0  0  0
 13 14  1  0  0  0  0
 13 15  1  0  0  0  0
 13 16  1  0  0  0  0
 16 17  1  0  0  0  0
 16 21  1  0  0  0  0
 17 18  1  0  0  0  0
 17 19  1  0  0  0  0
 17 20  1  0  0  0  0
 21 22  1  0  0  0  0
 21 23  1  0  0  0  0
 21 24  1  0  0  0  0
 24 25  1  0  0  0  0
 24 26  1  0  0  0  0
 24 27  1  0  0  0  0
 26 35  1  0  0  0  0
 27 28  1  0  0  0  0
 27 29  1  0  0  0  0
 27 31  1  0  0  0  0
 29 30  1  0  0  0  0
 31 32  1  0  0  0  0
 31 33  1  0  0  0  0
 31 35  1  0  0  0  0
 33 34  1  0  0  0  0
 35 36  1  0  0  0  0
 35 37  1  0  0  0  0
 37 38  1  0  0  0  0
 37 50  1  0  0  0  0
 38 39  1  0  0  0  0
 38 40  2  0  0  0  0
 40 41  1  0  0  0  0
 41 42  1  0  0  0  0
 41 50  2  0  0  0  0
 42 43  1  0  0  0  0
 42 46  2  0  0  0  0
 43 44  1  0  0  0  0
 43 45  1  0  0  0  0
 46 47  1  0  0  0  0
 47 48  1  0  0  0  0
 47 49  2  0  0  0  0
 49 50  1  0  0  0  0
M  END
> <ConfClashScore>
0 

> <ConfOneFourInteractionScore>
-0.981428 

> <ConfScore>
0.0579757 

> <ConfScorePBest>
0.00634346 

> <ConfTolerance>
1.50354 

$$$$
SAM.****
  PyMOL2.4          3D                             0

 50 52  0  0  0  0  0  0  0  0999 V2000
   -7.1141   -2.4714    0.8925 N   0  3  0  1  0  0  0  0  0  0  0  0
   -6.6232   -1.7335    0.3294 H   0  0  0  1  0  0  0  0  0  0  0  0
   -7.9818   -2.0644    1.3215 H   0  0  0  1  0  0  0  0  0  0  0  0
   -7.3754   -3.2729    0.2666 H   0  0  0  1  0  0  0  0  0  0  0  0
   -6.2088   -2.9584    1.9708 C   0  0  0  1  0  0  0  0  0  0  0  0
   -6.6798   -3.7827    2.4643 H   0  0  0  1  0  0  0  0  0  0  0  0
   -5.9988   -1.8774    2.9746 C   0  0  0  1  0  0  0  0  0  0  0  0
   -5.2129   -2.1825    4.0417 O   0  5  0  1  0  0  0  0  0  0  0  0
   -6.5330   -0.7965    2.7889 O   0  0  0  1  0  0  0  0  0  0  0  0
   -4.8962   -3.4460    1.3885 C   0  0  0  1  0  0  0  0  0  0  0  0
   -5.1100   -4.0763    0.5507 H   0  0  0  1  0  0  0  0  0  0  0  0
   -4.3814   -4.0104    2.1378 H   0  0  0  1  0  0  0  0  0  0  0  0
   -4.0109   -2.3488    0.9365 C   0  0  0  1  0  0  0  0  0  0  0  0
   -3.6865   -1.8069    1.8002 H   0  0  0  1  0  0  0  0  0  0  0  0
   -4.5808   -1.7022    0.3024 H   0  0  0  1  0  0  0  0  0  0  0  0
   -2.5579   -2.8744    0.0321 S   0  3  0  1  0  0  0  0  0  0  0  0
   -1.8922   -4.2292    0.9943 C   0  0  0  1  0  0  0  0  0  0  0  0
   -0.8235   -4.1753    0.9953 H   0  0  0  1  0  0  0  0  0  0  0  0
   -2.2018   -5.1583    0.5633 H   0  0  0  1  0  0  0  0  0  0  0  0
   -2.2533   -4.1638    1.9994 H   0  0  0  1  0  0  0  0  0  0  0  0
   -1.3528   -1.5879    0.4619 C   0  0  0  1  0  0  0  0  0  0  0  0
   -1.2638   -1.5334    1.5268 H   0  0  0  1  0  0  0  0  0  0  0  0
   -1.6950   -0.6474    0.0835 H   0  0  0  1  0  0  0  0  0  0  0  0
    0.0063   -1.8973   -0.1342 C   0  0  0  1  0  0  0  0  0  0  0  0
   -0.1174   -2.4851   -1.0197 H   0  0  0  1  0  0  0  0  0  0  0  0
    0.6948   -0.6750   -0.4483 O   0  0  0  1  0  0  0  0  0  0  0  0
    0.8685   -2.6618    0.8891 C   0  0  0  1  0  0  0  0  0  0  0  0
    0.3459   -2.7769    1.8157 H   0  0  0  1  0  0  0  0  0  0  0  0
    1.2338   -3.9473    0.3850 O   0  0  0  1  0  0  0  0  0  0  0  0
    0.6663   -4.1743   -0.3553 H   0  0  0  1  0  0  0  0  0  0  0  0
    2.1216   -1.7645    1.0707 C   0  0  0  1  0  0  0  0  0  0  0  0
    2.0357   -1.1492    1.9419 H   0  0  0  1  0  0  0  0  0  0  0  0
    3.3126   -2.5483    1.1562 O   0  0  0  1  0  0  0  0  0  0  0  0
    3.9112   -2.2998    0.4480 H   0  0  0  1  0  0  0  0  0  0  0  0
    2.1003   -0.9127   -0.2242 C   0  0  0  1  0  0  0  0  0  0  0  0
    2.5323   -1.4500   -1.0424 H   0  0  0  1  0  0  0  0  0  0  0  0
    2.8190    0.3461   -0.0333 N   0  0  0  1  0  0  0  0  0  0  0  0
    2.3073    1.4948    0.4878 C   0  0  0  1  0  0  0  0  0  0  0  0
    1.3876    1.5279    0.9723 H   0  0  0  1  0  0  0  0  0  0  0  0
    3.0577    2.5516    0.3336 N   0  0  0  1  0  0  0  0  0  0  0  0
    4.1680    2.0659   -0.3394 C   0  0  0  1  0  0  0  0  0  0  0  0
    5.3382    2.6429   -0.8240 C   0  0  0  1  0  0  0  0  0  0  0  0
    5.6832    3.9860   -0.7198 N   0  0  0  1  0  0  0  0  0  0  0  0
    5.0729    4.6162   -0.2829 H   0  0  0  1  0  0  0  0  0  0  0  0
    6.5365    4.3023   -1.0833 H   0  0  0  1  0  0  0  0  0  0  0  0
    6.2415    1.8825   -1.4521 N   0  0  0  1  0  0  0  0  0  0  0  0
    5.9694    0.5766   -1.6028 C   0  0  0  1  0  0  0  0  0  0  0  0
    6.6943    0.0206   -2.0997 H   0  0  0  1  0  0  0  0  0  0  0  0
    4.9002   -0.1008   -1.2031 N   0  0  0  1  0  0  0  0  0  0  0  0
    4.0313    0.6909   -0.5728 C   0  0  0  1  0  0  0  0  0  0  0  0
  1  2  1  0  0  0  0
  1  3  1  0  0  0  0
  1  4  1  0  0  0  0
  1  5  1  0  0  0  0
  5  6  1  0  0  0  0
  5  7  1  0  0  0  0
  5 10  1  0  0  0  0
  7  8  1  0  0  0  0
  7  9  2  0  0  0  0
 10 11  1  0  0  0  0
 10 12  1  0  0  0  0
 10 13  1  0  0  0  0
 13 14  1  0  0  0  0
 13 15  1  0  0  0  0
 13 16  1  0  0  0  0
 16 17  1  0  0  0  0
 16 21  1  0  0  0  0
 17 18  1  0  0  0  0
 17 19  1  0  0  0  0
 17 20  1  0  0  0  0
 21 22  1  0  0  0  0
 21 23  1  0  0  0  0
 21 24  1  0  0  0  0
 24 25  1  0  0  0  0
 24 26  1  0  0  0  0
 24 27  1  0  0  0  0
 26 35  1  0  0  0  0
 27 28  1  0  0  0  0
 27 29  1  0  0  0  0
 27 31  1  0  0  0  0
 29 30  1  0  0  0  0
 31 32  1  0  0  0  0
 31 33  1  0  0  0  0
 31 35  1  0  0  0  0
 33 34  1  0  0  0  0
 35 36  1  0  0  0  0
 35 37  1  0  0  0  0
 37 38  1  0  0  0  0
 37 50  1  0  0  0  0
 38 39  1  0  0  0  0
 38 40  2  0  0  0  0
 40 41  1  0  0  0  0
 41 42  1  0  0  0  0
 41 50  2  0  0  0  0
 42 43  1  0  0  0  0
 42 46  2  0  0  0  0
 43 44  1  0  0  0  0
 43 45  1  0  0  0  0
 46 47  1  0  0  0  0
 47 48  1  0  0  0  0
 47 49  2  0  0  0  0
 49 50  1  0  0  0  0
M  END
> <ConfClashScore>
0 

> <ConfOneFourInteractionScore>
-0.979307 

> <ConfScore>
0.0583002 

> <ConfScorePBest>
0.00624046 

> <ConfTolerance>
1.37967 

$$$$
SAM.****
  PyMOL2.4          3D                             0

 50 52  0  0  0  0  0  0  0  0999 V2000
   -5.2969    0.8178    2.9827 N   0  3  0  1  0  0  0  0  0  0  0  0
   -4.9814    1.2102    3.9041 H   0  0  0  1  0  0  0  0  0  0  0  0
   -6.3280    0.6233    3.0200 H   0  0  0  1  0  0  0  0  0  0  0  0
   -5.0985    1.5121    2.2204 H   0  0  0  1  0  0  0  0  0  0  0  0
   -4.5640   -0.4464    2.7043 C   0  0  0  1  0  0  0  0  0  0  0  0
   -4.8487   -1.1848    3.4244 H   0  0  0  1  0  0  0  0  0  0  0  0
   -3.1098   -0.1614    2.8598 C   0  0  0  1  0  0  0  0  0  0  0  0
   -2.4207   -1.2647    3.2568 O   0  5  0  1  0  0  0  0  0  0  0  0
   -2.5895    0.9236    2.6587 O   0  0  0  1  0  0  0  0  0  0  0  0
   -4.8682   -0.9736    1.3152 C   0  0  0  1  0  0  0  0  0  0  0  0
   -4.6120   -0.2272    0.5927 H   0  0  0  1  0  0  0  0  0  0  0  0
   -5.9127   -1.1951    1.2450 H   0  0  0  1  0  0  0  0  0  0  0  0
   -4.0812   -2.2198    1.0352 C   0  0  0  1  0  0  0  0  0  0  0  0
   -4.6298   -2.5884    0.1937 H   0  0  0  1  0  0  0  0  0  0  0  0
   -4.3371   -2.7880    1.9051 H   0  0  0  1  0  0  0  0  0  0  0  0
   -2.4764   -2.9372    0.6771 S   0  3  0  1  0  0  0  0  0  0  0  0
   -1.9929   -3.7143    2.2319 C   0  0  0  1  0  0  0  0  0  0  0  0
   -2.0830   -4.7768    2.1434 H   0  0  0  1  0  0  0  0  0  0  0  0
   -2.6307   -3.3667    3.0176 H   0  0  0  1  0  0  0  0  0  0  0  0
   -0.9781   -3.4602    2.4569 H   0  0  0  1  0  0  0  0  0  0  0  0
   -1.3447   -1.5194    0.6466 C   0  0  0  1  0  0  0  0  0  0  0  0
   -1.1117   -1.2359    1.6517 H   0  0  0  1  0  0  0  0  0  0  0  0
   -1.8208   -0.7022    0.1462 H   0  0  0  1  0  0  0  0  0  0  0  0
   -0.0641   -1.8652   -0.0791 C   0  0  0  1  0  0  0  0  0  0  0  0
   -0.2917   -2.4478   -0.9472 H   0  0  0  1  0  0  0  0  0  0  0  0
    0.6240   -0.6623   -0.4613 O   0  0  0  1  0  0  0  0  0  0  0  0
    0.8733   -2.6555    0.8545 C   0  0  0  1  0  0  0  0  0  0  0  0
    0.4422   -2.7573    1.8286 H   0  0  0  1  0  0  0  0  0  0  0  0
    1.1502   -3.9500    0.3181 O   0  0  0  1  0  0  0  0  0  0  0  0
    1.0589   -3.9272   -0.6373 H   0  0  0  1  0  0  0  0  0  0  0  0
    2.1631   -1.7943    0.9098 C   0  0  0  1  0  0  0  0  0  0  0  0
    2.1816   -1.1782    1.7845 H   0  0  0  1  0  0  0  0  0  0  0  0
    3.3341   -2.6116    0.8775 O   0  0  0  1  0  0  0  0  0  0  0  0
    3.8338   -2.4879    1.6879 H   0  0  0  1  0  0  0  0  0  0  0  0
    2.0375   -0.9400   -0.3776 C   0  0  0  1  0  0  0  0  0  0  0  0
    2.3709   -1.4880   -1.2340 H   0  0  0  1  0  0  0  0  0  0  0  0
    2.8089    0.3008   -0.2601 N   0  0  0  1  0  0  0  0  0  0  0  0
    4.1535    0.4188   -0.0840 C   0  0  0  1  0  0  0  0  0  0  0  0
    4.7663   -0.3992    0.1079 H   0  0  0  1  0  0  0  0  0  0  0  0
    4.6158    1.6362   -0.1741 N   0  0  0  1  0  0  0  0  0  0  0  0
    3.4860    2.3936   -0.4415 C   0  0  0  1  0  0  0  0  0  0  0  0
    3.2529    3.7508   -0.6432 C   0  0  0  1  0  0  0  0  0  0  0  0
    4.2468    4.6930   -0.6086 N   0  0  0  1  0  0  0  0  0  0  0  0
    5.1754    4.4203   -0.4544 H   0  0  0  1  0  0  0  0  0  0  0  0
    4.0292    5.6397   -0.7383 H   0  0  0  1  0  0  0  0  0  0  0  0
    2.0098    4.1814   -0.8837 N   0  0  0  1  0  0  0  0  0  0  0  0
    1.0222    3.2725   -0.9067 C   0  0  0  1  0  0  0  0  0  0  0  0
    0.0701    3.6474   -1.0926 H   0  0  0  1  0  0  0  0  0  0  0  0
    1.0967    1.9599   -0.7241 N   0  0  0  1  0  0  0  0  0  0  0  0
    2.3526    1.5714   -0.4989 C   0  0  0  1  0  0  0  0  0  0  0  0
  1  2  1  0  0  0  0
  1  3  1  0  0  0  0
  1  4  1  0  0  0  0
  1  5  1  0  0  0  0
  5  6  1  0  0  0  0
  5  7  1  0  0  0  0
  5 10  1  0  0  0  0
  7  8  1  0  0  0  0
  7  9  2  0  0  0  0
 10 11  1  0  0  0  0
 10 12  1  0  0  0  0
 10 13  1  0  0  0  0
 13 14  1  0  0  0  0
 13 15  1  0  0  0  0
 13 16  1  0  0  0  0
 16 17  1  0  0  0  0
 16 21  1  0  0  0  0
 17 18  1  0  0  0  0
 17 19  1  0  0  0  0
 17 20  1  0  0  0  0
 21 22  1  0  0  0  0
 21 23  1  0  0  0  0
 21 24  1  0  0  0  0
 24 25  1  0  0  0  0
 24 26  1  0  0  0  0
 24 27  1  0  0  0  0
 26 35  1  0  0  0  0
 27 28  1  0  0  0  0
 27 29  1  0  0  0  0
 27 31  1  0  0  0  0
 29 30  1  0  0  0  0
 31 32  1  0  0  0  0
 31 33  1  0  0  0  0
 31 35  1  0  0  0  0
 33 34  1  0  0  0  0
 35 36  1  0  0  0  0
 35 37  1  0  0  0  0
 37 38  1  0  0  0  0
 37 50  1  0  0  0  0
 38 39  1  0  0  0  0
 38 40  2  0  0  0  0
 40 41  1  0  0  0  0
 41 42  1  0  0  0  0
 41 50  2  0  0  0  0
 42 43  1  0  0  0  0
 42 46  2  0  0  0  0
 43 44  1  0  0  0  0
 43 45  1  0  0  0  0
 46 47  1  0  0  0  0
 47 48  1  0  0  0  0
 47 49  2  0  0  0  0
 49 50  1  0  0  0  0
M  END
> <ConfClashScore>
0 

> <ConfOneFourInteractionScore>
-0.98093 

> <ConfScore>
0.0588883 

> <ConfScorePBest>
0.00613746 

> <ConfTolerance>
1.7375 

$$$$
SAM.****
  PyMOL2.4          3D                             0

 50 52  0  0  0  0  0  0  0  0999 V2000
   -5.5764   -1.4038    2.2666 N   0  3  0  1  0  0  0  0  0  0  0  0
   -4.8823   -2.0127    1.7667 H   0  0  0  1  0  0  0  0  0  0  0  0
   -6.5116   -1.8808    2.2837 H   0  0  0  1  0  0  0  0  0  0  0  0
   -5.2501   -1.2368    3.2506 H   0  0  0  1  0  0  0  0  0  0  0  0
   -5.6980   -0.0901    1.5503 C   0  0  0  1  0  0  0  0  0  0  0  0
   -5.8951    0.6635    2.2839 H   0  0  0  1  0  0  0  0  0  0  0  0
   -6.8525   -0.1145    0.6087 C   0  0  0  1  0  0  0  0  0  0  0  0
   -7.1690    1.1339    0.1717 O   0  5  0  1  0  0  0  0  0  0  0  0
   -7.4869   -1.1186    0.3298 O   0  0  0  1  0  0  0  0  0  0  0  0
   -4.3642    0.2429    0.9010 C   0  0  0  1  0  0  0  0  0  0  0  0
   -3.6063    0.2801    1.6554 H   0  0  0  1  0  0  0  0  0  0  0  0
   -4.4363    1.1959    0.4199 H   0  0  0  1  0  0  0  0  0  0  0  0
   -3.9900   -0.8076   -0.1290 C   0  0  0  1  0  0  0  0  0  0  0  0
   -4.6762   -0.7699   -0.9492 H   0  0  0  1  0  0  0  0  0  0  0  0
   -4.0208   -1.7792    0.3181 H   0  0  0  1  0  0  0  0  0  0  0  0
   -2.3285   -0.4611   -0.7122 S   0  3  0  1  0  0  0  0  0  0  0  0
   -2.2916   -1.5494   -2.1352 C   0  0  0  1  0  0  0  0  0  0  0  0
   -3.2926   -1.7773   -2.4366 H   0  0  0  1  0  0  0  0  0  0  0  0
   -1.7818   -2.4545   -1.8786 H   0  0  0  1  0  0  0  0  0  0  0  0
   -1.7783   -1.0662   -2.9402 H   0  0  0  1  0  0  0  0  0  0  0  0
   -1.2363   -1.3128    0.4597 C   0  0  0  1  0  0  0  0  0  0  0  0
   -1.7697   -2.1242    0.9090 H   0  0  0  1  0  0  0  0  0  0  0  0
   -0.9307   -0.6227    1.2182 H   0  0  0  1  0  0  0  0  0  0  0  0
   -0.0111   -1.8535   -0.2388 C   0  0  0  1  0  0  0  0  0  0  0  0
   -0.3109   -2.5135   -1.0259 H   0  0  0  1  0  0  0  0  0  0  0  0
    0.7509   -0.7817   -0.7731 O   0  0  0  1  0  0  0  0  0  0  0  0
    0.8053   -2.5523    0.6916 C   0  0  0  1  0  0  0  0  0  0  0  0
    0.3539   -2.5272    1.6614 H   0  0  0  1  0  0  0  0  0  0  0  0
    0.9635   -3.9092    0.2743 O   0  0  0  1  0  0  0  0  0  0  0  0
    1.3766   -4.4148    0.9781 H   0  0  0  1  0  0  0  0  0  0  0  0
    2.0712   -1.9099    0.7324 C   0  0  0  1  0  0  0  0  0  0  0  0
    2.2667   -1.5558    1.7230 H   0  0  0  1  0  0  0  0  0  0  0  0
    3.0935   -2.8287    0.3440 O   0  0  0  1  0  0  0  0  0  0  0  0
    3.9480   -2.4965    0.6288 H   0  0  0  1  0  0  0  0  0  0  0  0
    2.0378   -0.8166   -0.1717 C   0  0  0  1  0  0  0  0  0  0  0  0
    2.7867   -0.9457   -0.9249 H   0  0  0  1  0  0  0  0  0  0  0  0
    2.2822    0.4344    0.5520 N   0  0  0  1  0  0  0  0  0  0  0  0
    1.4021    1.4517    0.7600 C   0  0  0  1  0  0  0  0  0  0  0  0
    0.4480    1.4590    0.3463 H   0  0  0  1  0  0  0  0  0  0  0  0
    1.8459    2.4175    1.5178 N   0  0  0  1  0  0  0  0  0  0  0  0
    3.1271    2.0061    1.8509 C   0  0  0  1  0  0  0  0  0  0  0  0
    4.1544    2.5534    2.6138 C   0  0  0  1  0  0  0  0  0  0  0  0
    4.1055    3.7702    3.2854 N   0  0  0  1  0  0  0  0  0  0  0  0
    4.9010    4.1067    3.7482 H   0  0  0  1  0  0  0  0  0  0  0  0
    3.2755    4.2912    3.2957 H   0  0  0  1  0  0  0  0  0  0  0  0
    5.3090    1.8912    2.7437 N   0  0  0  1  0  0  0  0  0  0  0  0
    5.4341    0.7141    2.1105 C   0  0  0  1  0  0  0  0  0  0  0  0
    6.3477    0.2325    2.2328 H   0  0  0  1  0  0  0  0  0  0  0  0
    4.5492    0.0819    1.3494 N   0  0  0  1  0  0  0  0  0  0  0  0
    3.4103    0.7696    1.2554 C   0  0  0  1  0  0  0  0  0  0  0  0
  1  2  1  0  0  0  0
  1  3  1  0  0  0  0
  1  4  1  0  0  0  0
  1  5  1  0  0  0  0
  5  6  1  0  0  0  0
  5  7  1  0  0  0  0
  5 10  1  0  0  0  0
  7  8  1  0  0  0  0
  7  9  2  0  0  0  0
 10 11  1  0  0  0  0
 10 12  1  0  0  0  0
 10 13  1  0  0  0  0
 13 14  1  0  0  0  0
 13 15  1  0  0  0  0
 13 16  1  0  0  0  0
 16 17  1  0  0  0  0
 16 21  1  0  0  0  0
 17 18  1  0  0  0  0
 17 19  1  0  0  0  0
 17 20  1  0  0  0  0
 21 22  1  0  0  0  0
 21 23  1  0  0  0  0
 21 24  1  0  0  0  0
 24 25  1  0  0  0  0
 24 26  1  0  0  0  0
 24 27  1  0  0  0  0
 26 35  1  0  0  0  0
 27 28  1  0  0  0  0
 27 29  1  0  0  0  0
 27 31  1  0  0  0  0
 29 30  1  0  0  0  0
 31 32  1  0  0  0  0
 31 33  1  0  0  0  0
 31 35  1  0  0  0  0
 33 34  1  0  0  0  0
 35 36  1  0  0  0  0
 35 37  1  0  0  0  0
 37 38  1  0  0  0  0
 37 50  1  0  0  0  0
 38 39  1  0  0  0  0
 38 40  2  0  0  0  0
 40 41  1  0  0  0  0
 41 42  1  0  0  0  0
 41 50  2  0  0  0  0
 42 43  1  0  0  0  0
 42 46  2  0  0  0  0
 43 44  1  0  0  0  0
 43 45  1  0  0  0  0
 46 47  1  0  0  0  0
 47 48  1  0  0  0  0
 47 49  2  0  0  0  0
 49 50  1  0  0  0  0
M  END
> <ConfClashScore>
0 

> <ConfOneFourInteractionScore>
-0.986105 

> <ConfScore>
0.0616762 

> <ConfScorePBest>
0.00603446 

> <ConfTolerance>
1.36306 

$$$$
SAM.****
  PyMOL2.4          3D                             0

 50 52  0  0  0  0  0  0  0  0999 V2000
   -2.8666    0.6360    5.9526 N   0  3  0  1  0  0  0  0  0  0  0  0
   -1.8746    0.3687    6.1693 H   0  0  0  1  0  0  0  0  0  0  0  0
   -3.4678    0.4624    6.7958 H   0  0  0  1  0  0  0  0  0  0  0  0
   -2.9068    1.6536    5.6970 H   0  0  0  1  0  0  0  0  0  0  0  0
   -3.3641   -0.1822    4.8116 C   0  0  0  1  0  0  0  0  0  0  0  0
   -3.9555    0.4279    4.1613 H   0  0  0  1  0  0  0  0  0  0  0  0
   -4.2107   -1.2801    5.3577 C   0  0  0  1  0  0  0  0  0  0  0  0
   -4.9723   -1.9638    4.4622 O   0  5  0  1  0  0  0  0  0  0  0  0
   -4.1759   -1.5028    6.5567 O   0  0  0  1  0  0  0  0  0  0  0  0
   -2.1829   -0.7412    4.0335 C   0  0  0  1  0  0  0  0  0  0  0  0
   -2.5406   -1.4414    3.3078 H   0  0  0  1  0  0  0  0  0  0  0  0
   -1.5192   -1.2365    4.7110 H   0  0  0  1  0  0  0  0  0  0  0  0
   -1.4307    0.3715    3.3235 C   0  0  0  1  0  0  0  0  0  0  0  0
   -0.8832    0.9334    4.0511 H   0  0  0  1  0  0  0  0  0  0  0  0
   -2.1401    1.0097    2.8392 H   0  0  0  1  0  0  0  0  0  0  0  0
   -0.3377   -0.2179    2.1527 S   0  3  0  1  0  0  0  0  0  0  0  0
   -0.1223    1.2620    1.0243 C   0  0  0  1  0  0  0  0  0  0  0  0
    0.8064    1.7461    1.2435 H   0  0  0  1  0  0  0  0  0  0  0  0
   -0.9278    1.9489    1.1797 H   0  0  0  1  0  0  0  0  0  0  0  0
   -0.1225    0.9361    0.0051 H   0  0  0  1  0  0  0  0  0  0  0  0
   -1.0785   -1.2784    0.8880 C   0  0  0  1  0  0  0  0  0  0  0  0
   -1.7957   -0.7056    0.3379 H   0  0  0  1  0  0  0  0  0  0  0  0
   -1.5701   -2.0964    1.3718 H   0  0  0  1  0  0  0  0  0  0  0  0
   -0.0564   -1.8315   -0.0790 C   0  0  0  1  0  0  0  0  0  0  0  0
   -0.5512   -2.4169   -0.8256 H   0  0  0  1  0  0  0  0  0  0  0  0
    0.6787   -0.7586   -0.6940 O   0  0  0  1  0  0  0  0  0  0  0  0
    0.9838   -2.6949    0.6766 C   0  0  0  1  0  0  0  0  0  0  0  0
    0.6087   -3.0035    1.6300 H   0  0  0  1  0  0  0  0  0  0  0  0
    1.3494   -3.8453   -0.0870 O   0  0  0  1  0  0  0  0  0  0  0  0
    0.7138   -4.5478    0.0677 H   0  0  0  1  0  0  0  0  0  0  0  0
    2.1590   -1.7459    0.8324 C   0  0  0  1  0  0  0  0  0  0  0  0
    2.0683   -1.1623    1.7246 H   0  0  0  1  0  0  0  0  0  0  0  0
    3.3848   -2.4506    0.8519 O   0  0  0  1  0  0  0  0  0  0  0  0
    3.6986   -2.5229    1.7563 H   0  0  0  1  0  0  0  0  0  0  0  0
    2.0463   -0.8638   -0.4211 C   0  0  0  1  0  0  0  0  0  0  0  0
    2.5559   -1.3198   -1.2440 H   0  0  0  1  0  0  0  0  0  0  0  0
    2.6169    0.4581   -0.1656 N   0  0  0  1  0  0  0  0  0  0  0  0
    3.3017    0.9057    0.9223 C   0  0  0  1  0  0  0  0  0  0  0  0
    3.5082    0.2992    1.7415 H   0  0  0  1  0  0  0  0  0  0  0  0
    3.6798    2.1535    0.8599 N   0  0  0  1  0  0  0  0  0  0  0  0
    3.2160    2.5717   -0.3777 C   0  0  0  1  0  0  0  0  0  0  0  0
    3.2600    3.7758   -1.0742 C   0  0  0  1  0  0  0  0  0  0  0  0
    3.8701    4.8701   -0.5339 N   0  0  0  1  0  0  0  0  0  0  0  0
    3.8657    5.7224   -1.0178 H   0  0  0  1  0  0  0  0  0  0  0  0
    4.3127    4.8039    0.3379 H   0  0  0  1  0  0  0  0  0  0  0  0
    2.6991    3.8621   -2.2853 N   0  0  0  1  0  0  0  0  0  0  0  0
    2.0956    2.7693   -2.7787 C   0  0  0  1  0  0  0  0  0  0  0  0
    1.6683    2.8781   -3.7206 H   0  0  0  1  0  0  0  0  0  0  0  0
    1.9707    1.5685   -2.2269 N   0  0  0  1  0  0  0  0  0  0  0  0
    2.5523    1.5224   -1.0275 C   0  0  0  1  0  0  0  0  0  0  0  0
  1  2  1  0  0  0  0
  1  3  1  0  0  0  0
  1  4  1  0  0  0  0
  1  5  1  0  0  0  0
  5  6  1  0  0  0  0
  5  7  1  0  0  0  0
  5 10  1  0  0  0  0
  7  8  1  0  0  0  0
  7  9  2  0  0  0  0
 10 11  1  0  0  0  0
 10 12  1  0  0  0  0
 10 13  1  0  0  0  0
 13 14  1  0  0  0  0
 13 15  1  0  0  0  0
 13 16  1  0  0  0  0
 16 17  1  0  0  0  0
 16 21  1  0  0  0  0
 17 18  1  0  0  0  0
 17 19  1  0  0  0  0
 17 20  1  0  0  0  0
 21 22  1  0  0  0  0
 21 23  1  0  0  0  0
 21 24  1  0  0  0  0
 24 25  1  0  0  0  0
 24 26  1  0  0  0  0
 24 27  1  0  0  0  0
 26 35  1  0  0  0  0
 27 28  1  0  0  0  0
 27 29  1  0  0  0  0
 27 31  1  0  0  0  0
 29 30  1  0  0  0  0
 31 32  1  0  0  0  0
 31 33  1  0  0  0  0
 31 35  1  0  0  0  0
 33 34  1  0  0  0  0
 35 36  1  0  0  0  0
 35 37  1  0  0  0  0
 37 38  1  0  0  0  0
 37 50  1  0  0  0  0
 38 39  1  0  0  0  0
 38 40  2  0  0  0  0
 40 41  1  0  0  0  0
 41 42  1  0  0  0  0
 41 50  2  0  0  0  0
 42 43  1  0  0  0  0
 42 46  2  0  0  0  0
 43 44  1  0  0  0  0
 43 45  1  0  0  0  0
 46 47  1  0  0  0  0
 47 48  1  0  0  0  0
 47 49  2  0  0  0  0
 49 50  1  0  0  0  0
M  END
> <ConfClashScore>
0 

> <ConfOneFourInteractionScore>
-0.991275 

> <ConfScore>
0.0652523 

> <ConfScorePBest>
0.00593146 

> <ConfTolerance>
1.54566 

$$$$
SAM.****
  PyMOL2.4          3D                             0

 50 52  0  0  0  0  0  0  0  0999 V2000
   -4.4603    0.5204   -3.6172 N   0  3  0  1  0  0  0  0  0  0  0  0
   -3.5216    0.1113   -3.8496 H   0  0  0  1  0  0  0  0  0  0  0  0
   -4.3315    1.3741   -3.0196 H   0  0  0  1  0  0  0  0  0  0  0  0
   -4.9559    0.7849   -4.5042 H   0  0  0  1  0  0  0  0  0  0  0  0
   -5.2779   -0.4937   -2.8708 C   0  0  0  1  0  0  0  0  0  0  0  0
   -5.1416   -1.4498   -3.3316 H   0  0  0  1  0  0  0  0  0  0  0  0
   -6.7036   -0.0931   -3.0351 C   0  0  0  1  0  0  0  0  0  0  0  0
   -7.6716   -1.0481   -3.0098 O   0  5  0  1  0  0  0  0  0  0  0  0
   -6.9732    1.0867   -3.1893 O   0  0  0  1  0  0  0  0  0  0  0  0
   -4.9060   -0.6178   -1.4058 C   0  0  0  1  0  0  0  0  0  0  0  0
   -5.5079   -1.3858   -0.9668 H   0  0  0  1  0  0  0  0  0  0  0  0
   -5.1102    0.3154   -0.9237 H   0  0  0  1  0  0  0  0  0  0  0  0
   -3.4440   -0.9652   -1.1829 C   0  0  0  1  0  0  0  0  0  0  0  0
   -2.8413   -0.3008   -1.7663 H   0  0  0  1  0  0  0  0  0  0  0  0
   -3.2785   -1.9724   -1.5039 H   0  0  0  1  0  0  0  0  0  0  0  0
   -2.9565   -0.8234    0.5329 S   0  3  0  1  0  0  0  0  0  0  0  0
   -2.6843    0.9426    0.6318 C   0  0  0  1  0  0  0  0  0  0  0  0
   -2.7352    1.2552    1.6539 H   0  0  0  1  0  0  0  0  0  0  0  0
   -3.4364    1.4514    0.0657 H   0  0  0  1  0  0  0  0  0  0  0  0
   -1.7187    1.1772    0.2350 H   0  0  0  1  0  0  0  0  0  0  0  0
   -1.3692   -1.4978    0.5893 C   0  0  0  1  0  0  0  0  0  0  0  0
   -1.6138   -2.4982    0.8795 H   0  0  0  1  0  0  0  0  0  0  0  0
   -0.9823   -0.9655    1.4331 H   0  0  0  1  0  0  0  0  0  0  0  0
   -0.0784   -1.7629   -0.1491 C   0  0  0  1  0  0  0  0  0  0  0  0
   -0.2895   -2.2739   -1.0652 H   0  0  0  1  0  0  0  0  0  0  0  0
    0.5948   -0.5225   -0.4224 O   0  0  0  1  0  0  0  0  0  0  0  0
    0.8625   -2.6152    0.7245 C   0  0  0  1  0  0  0  0  0  0  0  0
    0.4244   -2.8044    1.6822 H   0  0  0  1  0  0  0  0  0  0  0  0
    1.1607   -3.8437    0.0909 O   0  0  0  1  0  0  0  0  0  0  0  0
    1.9452   -4.2277    0.4893 H   0  0  0  1  0  0  0  0  0  0  0  0
    2.1387   -1.7432    0.8647 C   0  0  0  1  0  0  0  0  0  0  0  0
    2.1401   -1.2024    1.7880 H   0  0  0  1  0  0  0  0  0  0  0  0
    3.3221   -2.5381    0.7760 O   0  0  0  1  0  0  0  0  0  0  0  0
    3.1923   -3.3605    1.2540 H   0  0  0  1  0  0  0  0  0  0  0  0
    2.0116   -0.7859   -0.3479 C   0  0  0  1  0  0  0  0  0  0  0  0
    2.3608   -1.2554   -1.2438 H   0  0  0  1  0  0  0  0  0  0  0  0
    2.7618    0.4494   -0.1196 N   0  0  0  1  0  0  0  0  0  0  0  0
    2.6201    1.6304   -0.7814 C   0  0  0  1  0  0  0  0  0  0  0  0
    1.9241    1.7649   -1.5424 H   0  0  0  1  0  0  0  0  0  0  0  0
    3.4234    2.5814   -0.3890 N   0  0  0  1  0  0  0  0  0  0  0  0
    4.1574    1.9880    0.6263 C   0  0  0  1  0  0  0  0  0  0  0  0
    5.1825    2.4201    1.4626 C   0  0  0  1  0  0  0  0  0  0  0  0
    5.7514    3.6890    1.4586 N   0  0  0  1  0  0  0  0  0  0  0  0
    6.4332    3.9224    2.1228 H   0  0  0  1  0  0  0  0  0  0  0  0
    5.4706    4.3498    0.7917 H   0  0  0  1  0  0  0  0  0  0  0  0
    5.6997    1.5802    2.3658 N   0  0  0  1  0  0  0  0  0  0  0  0
    5.2091    0.3318    2.4179 C   0  0  0  1  0  0  0  0  0  0  0  0
    5.6401   -0.2915    3.1301 H   0  0  0  1  0  0  0  0  0  0  0  0
    4.2481   -0.2146    1.6831 N   0  0  0  1  0  0  0  0  0  0  0  0
    3.7528    0.6582    0.8046 C   0  0  0  1  0  0  0  0  0  0  0  0
  1  2  1  0  0  0  0
  1  3  1  0  0  0  0
  1  4  1  0  0  0  0
  1  5  1  0  0  0  0
  5  6  1  0  0  0  0
  5  7  1  0  0  0  0
  5 10  1  0  0  0  0
  7  8  1  0  0  0  0
  7  9  2  0  0  0  0
 10 11  1  0  0  0  0
 10 12  1  0  0  0  0
 10 13  1  0  0  0  0
 13 14  1  0  0  0  0
 13 15  1  0  0  0  0
 13 16  1  0  0  0  0
 16 17  1  0  0  0  0
 16 21  1  0  0  0  0
 17 18  1  0  0  0  0
 17 19  1  0  0  0  0
 17 20  1  0  0  0  0
 21 22  1  0  0  0  0
 21 23  1  0  0  0  0
 21 24  1  0  0  0  0
 24 25  1  0  0  0  0
 24 26  1  0  0  0  0
 24 27  1  0  0  0  0
 26 35  1  0  0  0  0
 27 28  1  0  0  0  0
 27 29  1  0  0  0  0
 27 31  1  0  0  0  0
 29 30  1  0  0  0  0
 31 32  1  0  0  0  0
 31 33  1  0  0  0  0
 31 35  1  0  0  0  0
 33 34  1  0  0  0  0
 35 36  1  0  0  0  0
 35 37  1  0  0  0  0
 37 38  1  0  0  0  0
 37 50  1  0  0  0  0
 38 39  1  0  0  0  0
 38 40  2  0  0  0  0
 40 41  1  0  0  0  0
 41 42  1  0  0  0  0
 41 50  2  0  0  0  0
 42 43  1  0  0  0  0
 42 46  2  0  0  0  0
 43 44  1  0  0  0  0
 43 45  1  0  0  0  0
 46 47  1  0  0  0  0
 47 48  1  0  0  0  0
 47 49  2  0  0  0  0
 49 50  1  0  0  0  0
M  END
> <ConfClashScore>
0 

> <ConfOneFourInteractionScore>
-0.984131 

> <ConfScore>
0.066421 

> <ConfScorePBest>
0.00582846 

> <ConfTolerance>
1.71312 

$$$$
SAM.****
  PyMOL2.4          3D                             0

 50 52  0  0  0  0  0  0  0  0999 V2000
   -4.7656    3.2873   -1.9401 N   0  3  0  1  0  0  0  0  0  0  0  0
   -5.7044    3.4197   -1.4889 H   0  0  0  1  0  0  0  0  0  0  0  0
   -4.8787    2.7389   -2.8284 H   0  0  0  1  0  0  0  0  0  0  0  0
   -4.3469    4.2252   -2.1581 H   0  0  0  1  0  0  0  0  0  0  0  0
   -3.8670    2.5464   -1.0104 C   0  0  0  1  0  0  0  0  0  0  0  0
   -3.6984    3.1524   -0.1448 H   0  0  0  1  0  0  0  0  0  0  0  0
   -2.5525    2.3061   -1.6696 C   0  0  0  1  0  0  0  0  0  0  0  0
   -1.5260    2.8378   -0.9533 O   0  5  0  1  0  0  0  0  0  0  0  0
   -2.4027    1.7077   -2.7222 O   0  0  0  1  0  0  0  0  0  0  0  0
   -4.5181    1.2417   -0.5563 C   0  0  0  1  0  0  0  0  0  0  0  0
   -4.8061    0.6652   -1.4104 H   0  0  0  1  0  0  0  0  0  0  0  0
   -5.3820    1.4566    0.0374 H   0  0  0  1  0  0  0  0  0  0  0  0
   -3.5081    0.4643    0.2705 C   0  0  0  1  0  0  0  0  0  0  0  0
   -4.0371   -0.1965    0.9249 H   0  0  0  1  0  0  0  0  0  0  0  0
   -2.9341    1.1569    0.8499 H   0  0  0  1  0  0  0  0  0  0  0  0
   -2.3877   -0.5048   -0.7414 S   0  3  0  1  0  0  0  0  0  0  0  0
   -3.4328   -1.8133   -1.4128 C   0  0  0  1  0  0  0  0  0  0  0  0
   -3.4047   -2.6622   -0.7621 H   0  0  0  1  0  0  0  0  0  0  0  0
   -3.0743   -2.0943   -2.3810 H   0  0  0  1  0  0  0  0  0  0  0  0
   -4.4394   -1.4593   -1.4936 H   0  0  0  1  0  0  0  0  0  0  0  0
   -1.4002   -1.4470    0.4540 C   0  0  0  1  0  0  0  0  0  0  0  0
   -1.9341   -2.3330    0.7279 H   0  0  0  1  0  0  0  0  0  0  0  0
   -1.2362   -0.8457    1.3237 H   0  0  0  1  0  0  0  0  0  0  0  0
   -0.0617   -1.8380   -0.1376 C   0  0  0  1  0  0  0  0  0  0  0  0
   -0.2183   -2.4212   -1.0209 H   0  0  0  1  0  0  0  0  0  0  0  0
    0.6979   -0.6596   -0.4553 O   0  0  0  1  0  0  0  0  0  0  0  0
    0.7521   -2.6476    0.8906 C   0  0  0  1  0  0  0  0  0  0  0  0
    0.2221   -2.7279    1.8166 H   0  0  0  1  0  0  0  0  0  0  0  0
    1.0421   -3.9545    0.3924 O   0  0  0  1  0  0  0  0  0  0  0  0
    1.5852   -3.8837   -0.3960 H   0  0  0  1  0  0  0  0  0  0  0  0
    2.0556   -1.8248    1.0710 C   0  0  0  1  0  0  0  0  0  0  0  0
    2.0045   -1.2018    1.9394 H   0  0  0  1  0  0  0  0  0  0  0  0
    3.1988   -2.6774    1.1620 O   0  0  0  1  0  0  0  0  0  0  0  0
    3.8476   -2.4146    0.5051 H   0  0  0  1  0  0  0  0  0  0  0  0
    2.0867   -0.9786   -0.2275 C   0  0  0  1  0  0  0  0  0  0  0  0
    2.4877   -1.5439   -1.0427 H   0  0  0  1  0  0  0  0  0  0  0  0
    2.8779    0.2367   -0.0402 N   0  0  0  1  0  0  0  0  0  0  0  0
    3.9125    0.6698   -0.8115 C   0  0  0  1  0  0  0  0  0  0  0  0
    4.2419    0.1488   -1.6491 H   0  0  0  1  0  0  0  0  0  0  0  0
    4.4600    1.7884   -0.4206 N   0  0  0  1  0  0  0  0  0  0  0  0
    3.7233    2.1359    0.7010 C   0  0  0  1  0  0  0  0  0  0  0  0
    3.7723    3.1930    1.6050 C   0  0  0  1  0  0  0  0  0  0  0  0
    4.6862    4.2098    1.5171 N   0  0  0  1  0  0  0  0  0  0  0  0
    5.3758    4.1901    0.8211 H   0  0  0  1  0  0  0  0  0  0  0  0
    4.6504    4.9569    2.1504 H   0  0  0  1  0  0  0  0  0  0  0  0
    2.8976    3.2423    2.6155 N   0  0  0  1  0  0  0  0  0  0  0  0
    2.0045    2.2460    2.7241 C   0  0  0  1  0  0  0  0  0  0  0  0
    1.3448    2.3186    3.5248 H   0  0  0  1  0  0  0  0  0  0  0  0
    1.8496    1.1808    1.9474 N   0  0  0  1  0  0  0  0  0  0  0  0
    2.7324    1.1761    0.9477 C   0  0  0  1  0  0  0  0  0  0  0  0
  1  2  1  0  0  0  0
  1  3  1  0  0  0  0
  1  4  1  0  0  0  0
  1  5  1  0  0  0  0
  5  6  1  0  0  0  0
  5  7  1  0  0  0  0
  5 10  1  0  0  0  0
  7  8  1  0  0  0  0
  7  9  2  0  0  0  0
 10 11  1  0  0  0  0
 10 12  1  0  0  0  0
 10 13  1  0  0  0  0
 13 14  1  0  0  0  0
 13 15  1  0  0  0  0
 13 16  1  0  0  0  0
 16 17  1  0  0  0  0
 16 21  1  0  0  0  0
 17 18  1  0  0  0  0
 17 19  1  0  0  0  0
 17 20  1  0  0  0  0
 21 22  1  0  0  0  0
 21 23  1  0  0  0  0
 21 24  1  0  0  0  0
 24 25  1  0  0  0  0
 24 26  1  0  0  0  0
 24 27  1  0  0  0  0
 26 35  1  0  0  0  0
 27 28  1  0  0  0  0
 27 29  1  0  0  0  0
 27 31  1  0  0  0  0
 29 30  1  0  0  0  0
 31 32  1  0  0  0  0
 31 33  1  0  0  0  0
 31 35  1  0  0  0  0
 33 34  1  0  0  0  0
 35 36  1  0  0  0  0
 35 37  1  0  0  0  0
 37 38  1  0  0  0  0
 37 50  1  0  0  0  0
 38 39  1  0  0  0  0
 38 40  2  0  0  0  0
 40 41  1  0  0  0  0
 41 42  1  0  0  0  0
 41 50  2  0  0  0  0
 42 43  1  0  0  0  0
 42 46  2  0  0  0  0
 43 44  1  0  0  0  0
 43 45  1  0  0  0  0
 46 47  1  0  0  0  0
 47 48  1  0  0  0  0
 47 49  2  0  0  0  0
 49 50  1  0  0  0  0
M  END
> <ConfClashScore>
0 

> <ConfOneFourInteractionScore>
-0.98093 

> <ConfScore>
0.0665356 

> <ConfScorePBest>
0.00572546 

> <ConfTolerance>
1.54499 

$$$$
SAM.****
  PyMOL2.4          3D                             0

 50 52  0  0  0  0  0  0  0  0999 V2000
   -5.1013   -4.8275    2.2298 N   0  3  0  1  0  0  0  0  0  0  0  0
   -5.4303   -5.7583    2.5875 H   0  0  0  1  0  0  0  0  0  0  0  0
   -5.4682   -4.6769    1.2576 H   0  0  0  1  0  0  0  0  0  0  0  0
   -5.4553   -4.0658    2.8599 H   0  0  0  1  0  0  0  0  0  0  0  0
   -3.5992   -4.8011    2.2077 C   0  0  0  1  0  0  0  0  0  0  0  0
   -3.2584   -5.4896    1.4630 H   0  0  0  1  0  0  0  0  0  0  0  0
   -3.0044   -5.1938    3.5162 C   0  0  0  1  0  0  0  0  0  0  0  0
   -3.8622   -5.0132    4.5560 O   0  5  0  1  0  0  0  0  0  0  0  0
   -1.8681   -5.6272    3.6130 O   0  0  0  1  0  0  0  0  0  0  0  0
   -3.1615   -3.4083    1.7970 C   0  0  0  1  0  0  0  0  0  0  0  0
   -2.1050   -3.3272    1.9455 H   0  0  0  1  0  0  0  0  0  0  0  0
   -3.6651   -2.6974    2.4182 H   0  0  0  1  0  0  0  0  0  0  0  0
   -3.4702   -3.0835    0.3454 C   0  0  0  1  0  0  0  0  0  0  0  0
   -4.5129   -3.2427    0.1653 H   0  0  0  1  0  0  0  0  0  0  0  0
   -2.8961   -3.7278   -0.2871 H   0  0  0  1  0  0  0  0  0  0  0  0
   -3.0634   -1.3766   -0.0309 S   0  3  0  1  0  0  0  0  0  0  0  0
   -2.8072   -1.5256   -1.7918 C   0  0  0  1  0  0  0  0  0  0  0  0
   -3.7539   -1.5435   -2.2902 H   0  0  0  1  0  0  0  0  0  0  0  0
   -2.2779   -2.4320   -1.9995 H   0  0  0  1  0  0  0  0  0  0  0  0
   -2.2364   -0.6906   -2.1408 H   0  0  0  1  0  0  0  0  0  0  0  0
   -1.1973   -1.1283    0.6575 C   0  0  0  1  0  0  0  0  0  0  0  0
   -1.1659   -1.5070    1.6578 H   0  0  0  1  0  0  0  0  0  0  0  0
   -0.9901   -0.0786    0.6663 H   0  0  0  1  0  0  0  0  0  0  0  0
   -0.0955   -1.8098   -0.1289 C   0  0  0  1  0  0  0  0  0  0  0  0
   -0.5277   -2.4171   -0.8965 H   0  0  0  1  0  0  0  0  0  0  0  0
    0.7839   -0.8285   -0.7065 O   0  0  0  1  0  0  0  0  0  0  0  0
    0.7773   -2.6764    0.8122 C   0  0  0  1  0  0  0  0  0  0  0  0
    0.2619   -2.8935    1.7244 H   0  0  0  1  0  0  0  0  0  0  0  0
    1.1603   -3.8979    0.1786 O   0  0  0  1  0  0  0  0  0  0  0  0
    2.0245   -3.7919   -0.2257 H   0  0  0  1  0  0  0  0  0  0  0  0
    1.9838   -1.7891    1.0637 C   0  0  0  1  0  0  0  0  0  0  0  0
    1.8178   -1.1389    1.8971 H   0  0  0  1  0  0  0  0  0  0  0  0
    3.1586   -2.5694    1.2940 O   0  0  0  1  0  0  0  0  0  0  0  0
    3.5464   -2.8207    0.4526 H   0  0  0  1  0  0  0  0  0  0  0  0
    2.0943   -0.9939   -0.2468 C   0  0  0  1  0  0  0  0  0  0  0  0
    2.6744   -1.5367   -0.9636 H   0  0  0  1  0  0  0  0  0  0  0  0
    2.7154    0.3081   -0.0010 N   0  0  0  1  0  0  0  0  0  0  0  0
    2.0852    1.5083    0.1221 C   0  0  0  1  0  0  0  0  0  0  0  0
    1.0520    1.6068    0.0553 H   0  0  0  1  0  0  0  0  0  0  0  0
    2.8753    2.5262    0.3304 N   0  0  0  1  0  0  0  0  0  0  0  0
    4.1387    1.9564    0.3573 C   0  0  0  1  0  0  0  0  0  0  0  0
    5.4260    2.4580    0.5251 C   0  0  0  1  0  0  0  0  0  0  0  0
    5.6902    3.7875    0.7232 N   0  0  0  1  0  0  0  0  0  0  0  0
    4.9553    4.4355    0.7427 H   0  0  0  1  0  0  0  0  0  0  0  0
    6.6141    4.0906    0.8455 H   0  0  0  1  0  0  0  0  0  0  0  0
    6.4714    1.6243    0.4958 N   0  0  0  1  0  0  0  0  0  0  0  0
    6.2308    0.3201    0.2883 C   0  0  0  1  0  0  0  0  0  0  0  0
    7.0696   -0.2944    0.2682 H   0  0  0  1  0  0  0  0  0  0  0  0
    5.0668   -0.2912    0.1053 N   0  0  0  1  0  0  0  0  0  0  0  0
    4.0518    0.5727    0.1530 C   0  0  0  1  0  0  0  0  0  0  0  0
  1  2  1  0  0  0  0
  1  3  1  0  0  0  0
  1  4  1  0  0  0  0
  1  5  1  0  0  0  0
  5  6  1  0  0  0  0
  5  7  1  0  0  0  0
  5 10  1  0  0  0  0
  7  8  1  0  0  0  0
  7  9  2  0  0  0  0
 10 11  1  0  0  0  0
 10 12  1  0  0  0  0
 10 13  1  0  0  0  0
 13 14  1  0  0  0  0
 13 15  1  0  0  0  0
 13 16  1  0  0  0  0
 16 17  1  0  0  0  0
 16 21  1  0  0  0  0
 17 18  1  0  0  0  0
 17 19  1  0  0  0  0
 17 20  1  0  0  0  0
 21 22  1  0  0  0  0
 21 23  1  0  0  0  0
 21 24  1  0  0  0  0
 24 25  1  0  0  0  0
 24 26  1  0  0  0  0
 24 27  1  0  0  0  0
 26 35  1  0  0  0  0
 27 28  1  0  0  0  0
 27 29  1  0  0  0  0
 27 31  1  0  0  0  0
 29 30  1  0  0  0  0
 31 32  1  0  0  0  0
 31 33  1  0  0  0  0
 31 35  1  0  0  0  0
 33 34  1  0  0  0  0
 35 36  1  0  0  0  0
 35 37  1  0  0  0  0
 37 38  1  0  0  0  0
 37 50  1  0  0  0  0
 38 39  1  0  0  0  0
 38 40  2  0  0  0  0
 40 41  1  0  0  0  0
 41 42  1  0  0  0  0
 41 50  2  0  0  0  0
 42 43  1  0  0  0  0
 42 46  2  0  0  0  0
 43 44  1  0  0  0  0
 43 45  1  0  0  0  0
 46 47  1  0  0  0  0
 47 48  1  0  0  0  0
 47 49  2  0  0  0  0
 49 50  1  0  0  0  0
M  END
> <ConfClashScore>
0 

> <ConfOneFourInteractionScore>
-0.965279 

> <ConfScore>
0.0709227 

> <ConfScorePBest>
0.00562246 

> <ConfTolerance>
1.42081 

$$$$
SAM.****
  PyMOL2.4          3D                             0

 50 52  0  0  0  0  0  0  0  0999 V2000
   -1.5017   -5.1337    5.2078 N   0  3  0  1  0  0  0  0  0  0  0  0
   -1.9959   -5.2687    6.1244 H   0  0  0  1  0  0  0  0  0  0  0  0
   -0.4648   -5.2079    5.3554 H   0  0  0  1  0  0  0  0  0  0  0  0
   -1.8131   -5.8729    4.5303 H   0  0  0  1  0  0  0  0  0  0  0  0
   -1.8299   -3.7880    4.6594 C   0  0  0  1  0  0  0  0  0  0  0  0
   -0.9185   -3.2439    4.5243 H   0  0  0  1  0  0  0  0  0  0  0  0
   -2.6735   -3.0417    5.6349 C   0  0  0  1  0  0  0  0  0  0  0  0
   -2.5495   -1.6962    5.4810 O   0  5  0  1  0  0  0  0  0  0  0  0
   -3.3911   -3.5622    6.4731 O   0  0  0  1  0  0  0  0  0  0  0  0
   -2.5140   -3.9119    3.2997 C   0  0  0  1  0  0  0  0  0  0  0  0
   -3.4415   -4.4319    3.4197 H   0  0  0  1  0  0  0  0  0  0  0  0
   -1.8795   -4.4618    2.6365 H   0  0  0  1  0  0  0  0  0  0  0  0
   -2.7819   -2.5571    2.7137 C   0  0  0  1  0  0  0  0  0  0  0  0
   -3.3465   -2.1279    3.5150 H   0  0  0  1  0  0  0  0  0  0  0  0
   -3.4434   -2.8367    1.9205 H   0  0  0  1  0  0  0  0  0  0  0  0
   -2.0948   -1.0688    2.0104 S   0  3  0  1  0  0  0  0  0  0  0  0
   -3.5454   -0.3155    1.2909 C   0  0  0  1  0  0  0  0  0  0  0  0
   -3.8585    0.5081    1.8979 H   0  0  0  1  0  0  0  0  0  0  0  0
   -4.3327   -1.0381    1.2369 H   0  0  0  1  0  0  0  0  0  0  0  0
   -3.3140    0.0348    0.3067 H   0  0  0  1  0  0  0  0  0  0  0  0
   -1.2956   -1.6833    0.6100 C   0  0  0  1  0  0  0  0  0  0  0  0
   -1.8489   -1.1688   -0.1476 H   0  0  0  1  0  0  0  0  0  0  0  0
   -1.6175   -2.7026    0.6574 H   0  0  0  1  0  0  0  0  0  0  0  0
    0.0120   -1.8705   -0.1225 C   0  0  0  1  0  0  0  0  0  0  0  0
   -0.1590   -2.4224   -1.0231 H   0  0  0  1  0  0  0  0  0  0  0  0
    0.5888   -0.5908   -0.4326 O   0  0  0  1  0  0  0  0  0  0  0  0
    1.0147   -2.6229    0.7739 C   0  0  0  1  0  0  0  0  0  0  0  0
    0.5917   -2.8171    1.7374 H   0  0  0  1  0  0  0  0  0  0  0  0
    1.4100   -3.8552    0.1696 O   0  0  0  1  0  0  0  0  0  0  0  0
    0.6567   -4.4492    0.1306 H   0  0  0  1  0  0  0  0  0  0  0  0
    2.2205   -1.6525    0.8867 C   0  0  0  1  0  0  0  0  0  0  0  0
    2.1802   -1.0866    1.7939 H   0  0  0  1  0  0  0  0  0  0  0  0
    3.4615   -2.3573    0.8191 O   0  0  0  1  0  0  0  0  0  0  0  0
    3.3934   -3.1748    1.3178 H   0  0  0  1  0  0  0  0  0  0  0  0
    2.0215   -0.7433   -0.3529 C   0  0  0  1  0  0  0  0  0  0  0  0
    2.4060   -1.2106   -1.2354 H   0  0  0  1  0  0  0  0  0  0  0  0
    2.6757    0.5526   -0.1615 N   0  0  0  1  0  0  0  0  0  0  0  0
    2.4440    1.6999   -0.8565 C   0  0  0  1  0  0  0  0  0  0  0  0
    1.7396    1.7590   -1.6193 H   0  0  0  1  0  0  0  0  0  0  0  0
    3.1725    2.7203   -0.4932 N   0  0  0  1  0  0  0  0  0  0  0  0
    3.9498    2.2140    0.5368 C   0  0  0  1  0  0  0  0  0  0  0  0
    4.9391    2.7468    1.3581 C   0  0  0  1  0  0  0  0  0  0  0  0
    5.3628    4.0466    1.2709 N   0  0  0  1  0  0  0  0  0  0  0  0
    5.0555    4.6138    0.5332 H   0  0  0  1  0  0  0  0  0  0  0  0
    5.9733    4.4093    1.9463 H   0  0  0  1  0  0  0  0  0  0  0  0
    5.5191    1.9750    2.2836 N   0  0  0  1  0  0  0  0  0  0  0  0
    5.1252    0.6948    2.3724 C   0  0  0  1  0  0  0  0  0  0  0  0
    5.6027    0.1269    3.1012 H   0  0  0  1  0  0  0  0  0  0  0  0
    4.2086    0.0559    1.6558 N   0  0  0  1  0  0  0  0  0  0  0  0
    3.6480    0.8628    0.7539 C   0  0  0  1  0  0  0  0  0  0  0  0
  1  2  1  0  0  0  0
  1  3  1  0  0  0  0
  1  4  1  0  0  0  0
  1  5  1  0  0  0  0
  5  6  1  0  0  0  0
  5  7  1  0  0  0  0
  5 10  1  0  0  0  0
  7  8  1  0  0  0  0
  7  9  2  0  0  0  0
 10 11  1  0  0  0  0
 10 12  1  0  0  0  0
 10 13  1  0  0  0  0
 13 14  1  0  0  0  0
 13 15  1  0  0  0  0
 13 16  1  0  0  0  0
 16 17  1  0  0  0  0
 16 21  1  0  0  0  0
 17 18  1  0  0  0  0
 17 19  1  0  0  0  0
 17 20  1  0  0  0  0
 21 22  1  0  0  0  0
 21 23  1  0  0  0  0
 21 24  1  0  0  0  0
 24 25  1  0  0  0  0
 24 26  1  0  0  0  0
 24 27  1  0  0  0  0
 26 35  1  0  0  0  0
 27 28  1  0  0  0  0
 27 29  1  0  0  0  0
 27 31  1  0  0  0  0
 29 30  1  0  0  0  0
 31 32  1  0  0  0  0
 31 33  1  0  0  0  0
 31 35  1  0  0  0  0
 33 34  1  0  0  0  0
 35 36  1  0  0  0  0
 35 37  1  0  0  0  0
 37 38  1  0  0  0  0
 37 50  1  0  0  0  0
 38 39  1  0  0  0  0
 38 40  2  0  0  0  0
 40 41  1  0  0  0  0
 41 42  1  0  0  0  0
 41 50  2  0  0  0  0
 42 43  1  0  0  0  0
 42 46  2  0  0  0  0
 43 44  1  0  0  0  0
 43 45  1  0  0  0  0
 46 47  1  0  0  0  0
 47 48  1  0  0  0  0
 47 49  2  0  0  0  0
 49 50  1  0  0  0  0
M  END
> <ConfClashScore>
0 

> <ConfOneFourInteractionScore>
-0.991275 

> <ConfScore>
0.0746138 

> <ConfScorePBest>
0.00551946 

> <ConfTolerance>
1.64603 

$$$$
SAM.****
  PyMOL2.4          3D                             0

 50 52  0  0  0  0  0  0  0  0999 V2000
   -4.1762   -6.3422    2.5924 N   0  3  0  1  0  0  0  0  0  0  0  0
   -4.9393   -6.8837    2.1160 H   0  0  0  1  0  0  0  0  0  0  0  0
   -4.5047   -6.0363    3.5416 H   0  0  0  1  0  0  0  0  0  0  0  0
   -3.3269   -6.9510    2.6948 H   0  0  0  1  0  0  0  0  0  0  0  0
   -3.8326   -5.1442    1.7763 C   0  0  0  1  0  0  0  0  0  0  0  0
   -4.0561   -4.2761    2.3606 H   0  0  0  1  0  0  0  0  0  0  0  0
   -4.7163   -5.1120    0.5770 C   0  0  0  1  0  0  0  0  0  0  0  0
   -4.8723   -3.9061   -0.0321 O   0  5  0  1  0  0  0  0  0  0  0  0
   -5.2286   -6.1656    0.2367 O   0  0  0  1  0  0  0  0  0  0  0  0
   -2.3521   -5.1036    1.4498 C   0  0  0  1  0  0  0  0  0  0  0  0
   -2.1184   -5.9432    0.8291 H   0  0  0  1  0  0  0  0  0  0  0  0
   -1.8010   -5.1713    2.3645 H   0  0  0  1  0  0  0  0  0  0  0  0
   -1.9296   -3.8367    0.7256 C   0  0  0  1  0  0  0  0  0  0  0  0
   -2.6087   -3.6512   -0.0802 H   0  0  0  1  0  0  0  0  0  0  0  0
   -0.9416   -3.9689    0.3367 H   0  0  0  1  0  0  0  0  0  0  0  0
   -1.9392   -2.4367    1.8307 S   0  3  0  1  0  0  0  0  0  0  0  0
   -3.6529   -1.9394    1.7563 C   0  0  0  1  0  0  0  0  0  0  0  0
   -3.7176   -0.8725    1.8056 H   0  0  0  1  0  0  0  0  0  0  0  0
   -4.1843   -2.3673    2.5805 H   0  0  0  1  0  0  0  0  0  0  0  0
   -4.0834   -2.2805    0.8380 H   0  0  0  1  0  0  0  0  0  0  0  0
   -1.1478   -1.1613    0.8115 C   0  0  0  1  0  0  0  0  0  0  0  0
   -0.6745   -0.4460    1.4511 H   0  0  0  1  0  0  0  0  0  0  0  0
   -1.8939   -0.6731    0.2200 H   0  0  0  1  0  0  0  0  0  0  0  0
   -0.1106   -1.7680   -0.1038 C   0  0  0  1  0  0  0  0  0  0  0  0
   -0.5969   -2.3515   -0.8575 H   0  0  0  1  0  0  0  0  0  0  0  0
    0.6840   -0.7335   -0.7107 O   0  0  0  1  0  0  0  0  0  0  0  0
    0.8697   -2.6505    0.7076 C   0  0  0  1  0  0  0  0  0  0  0  0
    0.4485   -2.9266    1.6517 H   0  0  0  1  0  0  0  0  0  0  0  0
    1.2238   -3.8280   -0.0191 O   0  0  0  1  0  0  0  0  0  0  0  0
    2.1504   -4.0300    0.1297 H   0  0  0  1  0  0  0  0  0  0  0  0
    2.0704   -1.7389    0.8902 C   0  0  0  1  0  0  0  0  0  0  0  0
    1.9664   -1.1344    1.7669 H   0  0  0  1  0  0  0  0  0  0  0  0
    3.2815   -2.4918    0.9711 O   0  0  0  1  0  0  0  0  0  0  0  0
    3.1008   -3.3481    1.3657 H   0  0  0  1  0  0  0  0  0  0  0  0
    2.0358   -0.8794   -0.3834 C   0  0  0  1  0  0  0  0  0  0  0  0
    2.5600   -1.3692   -1.1772 H   0  0  0  1  0  0  0  0  0  0  0  0
    2.6418    0.4271   -0.1316 N   0  0  0  1  0  0  0  0  0  0  0  0
    3.9478    0.7290    0.1051 C   0  0  0  1  0  0  0  0  0  0  0  0
    4.7051    0.0184    0.0488 H   0  0  0  1  0  0  0  0  0  0  0  0
    4.1782    1.9776    0.4082 N   0  0  0  1  0  0  0  0  0  0  0  0
    2.9212    2.5602    0.3613 C   0  0  0  1  0  0  0  0  0  0  0  0
    2.4390    3.8465    0.5848 C   0  0  0  1  0  0  0  0  0  0  0  0
    3.2911    4.8614    0.9322 N   0  0  0  1  0  0  0  0  0  0  0  0
    2.9387    5.7592    1.1058 H   0  0  0  1  0  0  0  0  0  0  0  0
    4.2530    4.6896    1.0071 H   0  0  0  1  0  0  0  0  0  0  0  0
    1.1309    4.0952    0.4594 N   0  0  0  1  0  0  0  0  0  0  0  0
    0.3245    3.0733    0.1317 C   0  0  0  1  0  0  0  0  0  0  0  0
   -0.6856    3.3064    0.0481 H   0  0  0  1  0  0  0  0  0  0  0  0
    0.6422    1.8055   -0.1000 N   0  0  0  1  0  0  0  0  0  0  0  0
    1.9546    1.6032    0.0242 C   0  0  0  1  0  0  0  0  0  0  0  0
  1  2  1  0  0  0  0
  1  3  1  0  0  0  0
  1  4  1  0  0  0  0
  1  5  1  0  0  0  0
  5  6  1  0  0  0  0
  5  7  1  0  0  0  0
  5 10  1  0  0  0  0
  7  8  1  0  0  0  0
  7  9  2  0  0  0  0
 10 11  1  0  0  0  0
 10 12  1  0  0  0  0
 10 13  1  0  0  0  0
 13 14  1  0  0  0  0
 13 15  1  0  0  0  0
 13 16  1  0  0  0  0
 16 17  1  0  0  0  0
 16 21  1  0  0  0  0
 17 18  1  0  0  0  0
 17 19  1  0  0  0  0
 17 20  1  0  0  0  0
 21 22  1  0  0  0  0
 21 23  1  0  0  0  0
 21 24  1  0  0  0  0
 24 25  1  0  0  0  0
 24 26  1  0  0  0  0
 24 27  1  0  0  0  0
 26 35  1  0  0  0  0
 27 28  1  0  0  0  0
 27 29  1  0  0  0  0
 27 31  1  0  0  0  0
 29 30  1  0  0  0  0
 31 32  1  0  0  0  0
 31 33  1  0  0  0  0
 31 35  1  0  0  0  0
 33 34  1  0  0  0  0
 35 36  1  0  0  0  0
 35 37  1  0  0  0  0
 37 38  1  0  0  0  0
 37 50  1  0  0  0  0
 38 39  1  0  0  0  0
 38 40  2  0  0  0  0
 40 41  1  0  0  0  0
 41 42  1  0  0  0  0
 41 50  2  0  0  0  0
 42 43  1  0  0  0  0
 42 46  2  0  0  0  0
 43 44  1  0  0  0  0
 43 45  1  0  0  0  0
 46 47  1  0  0  0  0
 47 48  1  0  0  0  0
 47 49  2  0  0  0  0
 49 50  1  0  0  0  0
M  END
> <ConfClashScore>
0 

> <ConfOneFourInteractionScore>
-0.986105 

> <ConfScore>
0.0795871 

> <ConfScorePBest>
0.00541646 

> <ConfTolerance>
1.79476 

$$$$
SAM.****
  PyMOL2.4          3D                             0

 50 52  0  0  0  0  0  0  0  0999 V2000
   -1.9464    2.6812   -3.1542 N   0  3  0  1  0  0  0  0  0  0  0  0
   -2.7745    2.0430   -3.2519 H   0  0  0  1  0  0  0  0  0  0  0  0
   -2.0129    3.4516   -3.8645 H   0  0  0  1  0  0  0  0  0  0  0  0
   -1.9354    3.0944   -2.1890 H   0  0  0  1  0  0  0  0  0  0  0  0
   -0.6931    1.9074   -3.3771 C   0  0  0  1  0  0  0  0  0  0  0  0
    0.1347    2.5849   -3.3503 H   0  0  0  1  0  0  0  0  0  0  0  0
   -0.7286    1.2741   -4.7253 C   0  0  0  1  0  0  0  0  0  0  0  0
   -1.8445    1.4934   -5.4712 O   0  5  0  1  0  0  0  0  0  0  0  0
    0.2274    0.6051   -5.0815 O   0  0  0  1  0  0  0  0  0  0  0  0
   -0.4959    0.8795   -2.2795 C   0  0  0  1  0  0  0  0  0  0  0  0
   -0.4590    1.3897   -1.3397 H   0  0  0  1  0  0  0  0  0  0  0  0
    0.4328    0.3759   -2.4493 H   0  0  0  1  0  0  0  0  0  0  0  0
   -1.5895   -0.1459   -2.2215 C   0  0  0  1  0  0  0  0  0  0  0  0
   -1.9033   -0.1256   -3.2442 H   0  0  0  1  0  0  0  0  0  0  0  0
   -2.2969    0.3860   -1.6202 H   0  0  0  1  0  0  0  0  0  0  0  0
   -2.0538   -1.8244   -1.8053 S   0  3  0  1  0  0  0  0  0  0  0  0
   -3.7586   -1.6289   -1.2963 C   0  0  0  1  0  0  0  0  0  0  0  0
   -4.3731   -1.4730   -2.1582 H   0  0  0  1  0  0  0  0  0  0  0  0
   -3.8410   -0.7858   -0.6426 H   0  0  0  1  0  0  0  0  0  0  0  0
   -4.0809   -2.5111   -0.7837 H   0  0  0  1  0  0  0  0  0  0  0  0
   -1.2210   -1.9677   -0.2056 C   0  0  0  1  0  0  0  0  0  0  0  0
   -1.5935   -2.8353    0.2979 H   0  0  0  1  0  0  0  0  0  0  0  0
   -1.4412   -1.0960    0.3745 H   0  0  0  1  0  0  0  0  0  0  0  0
    0.2719   -2.0926   -0.3395 C   0  0  0  1  0  0  0  0  0  0  0  0
    0.5037   -2.8247   -1.0846 H   0  0  0  1  0  0  0  0  0  0  0  0
    0.8466   -0.8556   -0.6630 O   0  0  0  1  0  0  0  0  0  0  0  0
    0.9095   -2.4658    1.0066 C   0  0  0  1  0  0  0  0  0  0  0  0
    0.3804   -2.0175    1.8215 H   0  0  0  1  0  0  0  0  0  0  0  0
    0.9462   -3.8826    1.1838 O   0  0  0  1  0  0  0  0  0  0  0  0
    0.2540   -4.2894    0.6575 H   0  0  0  1  0  0  0  0  0  0  0  0
    2.2990   -1.8978    0.8833 C   0  0  0  1  0  0  0  0  0  0  0  0
    2.7027   -1.6589    1.8450 H   0  0  0  1  0  0  0  0  0  0  0  0
    3.1689   -2.8126    0.2150 O   0  0  0  1  0  0  0  0  0  0  0  0
    3.1602   -2.6323   -0.7279 H   0  0  0  1  0  0  0  0  0  0  0  0
    2.0854   -0.6324    0.0474 C   0  0  0  1  0  0  0  0  0  0  0  0
    2.8935   -0.4959   -0.6406 H   0  0  0  1  0  0  0  0  0  0  0  0
    1.9769    0.5416    0.9120 N   0  0  0  1  0  0  0  0  0  0  0  0
    2.8221    1.6082    0.8838 C   0  0  0  1  0  0  0  0  0  0  0  0
    3.6229    1.6698    0.2231 H   0  0  0  1  0  0  0  0  0  0  0  0
    2.5519    2.5479    1.7486 N   0  0  0  1  0  0  0  0  0  0  0  0
    1.4262    2.0726    2.4033 C   0  0  0  1  0  0  0  0  0  0  0  0
    0.6269    2.5563    3.4348 C   0  0  0  1  0  0  0  0  0  0  0  0
    0.7723    3.7595    4.1316 N   0  0  0  1  0  0  0  0  0  0  0  0
    0.0682    4.0594    4.7437 H   0  0  0  1  0  0  0  0  0  0  0  0
    1.5783    4.3031    4.0078 H   0  0  0  1  0  0  0  0  0  0  0  0
   -0.4181    1.8365    3.8572 N   0  0  0  1  0  0  0  0  0  0  0  0
   -0.6462    0.6523    3.2676 C   0  0  0  1  0  0  0  0  0  0  0  0
   -1.4651    0.1213    3.6268 H   0  0  0  1  0  0  0  0  0  0  0  0
    0.0322    0.0676    2.2879 N   0  0  0  1  0  0  0  0  0  0  0  0
    1.0572    0.8223    1.8892 C   0  0  0  1  0  0  0  0  0  0  0  0
  1  2  1  0  0  0  0
  1  3  1  0  0  0  0
  1  4  1  0  0  0  0
  1  5  1  0  0  0  0
  5  6  1  0  0  0  0
  5  7  1  0  0  0  0
  5 10  1  0  0  0  0
  7  8  1  0  0  0  0
  7  9  2  0  0  0  0
 10 11  1  0  0  0  0
 10 12  1  0  0  0  0
 10 13  1  0  0  0  0
 13 14  1  0  0  0  0
 13 15  1  0  0  0  0
 13 16  1  0  0  0  0
 16 17  1  0  0  0  0
 16 21  1  0  0  0  0
 17 18  1  0  0  0  0
 17 19  1  0  0  0  0
 17 20  1  0  0  0  0
 21 22  1  0  0  0  0
 21 23  1  0  0  0  0
 21 24  1  0  0  0  0
 24 25  1  0  0  0  0
 24 26  1  0  0  0  0
 24 27  1  0  0  0  0
 26 35  1  0  0  0  0
 27 28  1  0  0  0  0
 27 29  1  0  0  0  0
 27 31  1  0  0  0  0
 29 30  1  0  0  0  0
 31 32  1  0  0  0  0
 31 33  1  0  0  0  0
 31 35  1  0  0  0  0
 33 34  1  0  0  0  0
 35 36  1  0  0  0  0
 35 37  1  0  0  0  0
 37 38  1  0  0  0  0
 37 50  1  0  0  0  0
 38 39  1  0  0  0  0
 38 40  2  0  0  0  0
 40 41  1  0  0  0  0
 41 42  1  0  0  0  0
 41 50  2  0  0  0  0
 42 43  1  0  0  0  0
 42 46  2  0  0  0  0
 43 44  1  0  0  0  0
 43 45  1  0  0  0  0
 46 47  1  0  0  0  0
 47 48  1  0  0  0  0
 47 49  2  0  0  0  0
 49 50  1  0  0  0  0
M  END
> <ConfClashScore>
0 

> <ConfOneFourInteractionScore>
-0.98093 

> <ConfScore>
0.110631 

> <ConfScorePBest>
0.00531345 

> <ConfTolerance>
1.67971 

$$$$
SAM.****
  PyMOL2.4          3D                             0

 50 52  0  0  0  0  0  0  0  0999 V2000
   -1.1169   -3.9302    4.5272 N   0  3  0  1  0  0  0  0  0  0  0  0
   -0.3705   -4.1182    5.2415 H   0  0  0  1  0  0  0  0  0  0  0  0
   -0.9572   -4.5383    3.6862 H   0  0  0  1  0  0  0  0  0  0  0  0
   -2.0582   -4.1438    4.9405 H   0  0  0  1  0  0  0  0  0  0  0  0
   -1.0667   -2.4979    4.1207 C   0  0  0  1  0  0  0  0  0  0  0  0
   -0.0483   -2.1911    4.0043 H   0  0  0  1  0  0  0  0  0  0  0  0
   -1.7078   -1.6743    5.1841 C   0  0  0  1  0  0  0  0  0  0  0  0
   -1.0778   -1.6389    6.3889 O   0  5  0  1  0  0  0  0  0  0  0  0
   -2.7444   -1.0868    4.9221 O   0  0  0  1  0  0  0  0  0  0  0  0
   -1.7823   -2.3811    2.7886 C   0  0  0  1  0  0  0  0  0  0  0  0
   -2.7476   -2.8331    2.8813 H   0  0  0  1  0  0  0  0  0  0  0  0
   -1.2120   -2.9049    2.0501 H   0  0  0  1  0  0  0  0  0  0  0  0
   -1.9604   -0.9819    2.3388 C   0  0  0  1  0  0  0  0  0  0  0  0
   -1.0084   -0.4953    2.3827 H   0  0  0  1  0  0  0  0  0  0  0  0
   -2.6389   -0.5006    3.0117 H   0  0  0  1  0  0  0  0  0  0  0  0
   -2.6016   -0.7985    0.6778 S   0  3  0  1  0  0  0  0  0  0  0  0
   -4.0271   -1.8809    0.6929 C   0  0  0  1  0  0  0  0  0  0  0  0
   -4.8331   -1.4029    1.2095 H   0  0  0  1  0  0  0  0  0  0  0  0
   -3.7761   -2.7940    1.1911 H   0  0  0  1  0  0  0  0  0  0  0  0
   -4.3244   -2.0928   -0.3129 H   0  0  0  1  0  0  0  0  0  0  0  0
   -1.3898   -1.6739   -0.1841 C   0  0  0  1  0  0  0  0  0  0  0  0
   -1.6480   -1.3928   -1.1837 H   0  0  0  1  0  0  0  0  0  0  0  0
   -1.7268   -2.6718    0.0046 H   0  0  0  1  0  0  0  0  0  0  0  0
    0.0964   -1.9446   -0.3769 C   0  0  0  1  0  0  0  0  0  0  0  0
    0.2311   -2.6495   -1.1704 H   0  0  0  1  0  0  0  0  0  0  0  0
    0.7868   -0.7549   -0.6470 O   0  0  0  1  0  0  0  0  0  0  0  0
    0.7282   -2.4621    0.9235 C   0  0  0  1  0  0  0  0  0  0  0  0
    0.2705   -2.0130    1.7801 H   0  0  0  1  0  0  0  0  0  0  0  0
    0.6231   -3.8834    1.0170 O   0  0  0  1  0  0  0  0  0  0  0  0
    1.4993   -4.2640    1.1118 H   0  0  0  1  0  0  0  0  0  0  0  0
    2.1651   -2.0316    0.7873 C   0  0  0  1  0  0  0  0  0  0  0  0
    2.6172   -1.8940    1.7473 H   0  0  0  1  0  0  0  0  0  0  0  0
    2.9177   -2.9877    0.0383 O   0  0  0  1  0  0  0  0  0  0  0  0
    3.6139   -2.5386   -0.4466 H   0  0  0  1  0  0  0  0  0  0  0  0
    2.0609   -0.7024    0.0336 C   0  0  0  1  0  0  0  0  0  0  0  0
    2.8598   -0.6068   -0.6716 H   0  0  0  1  0  0  0  0  0  0  0  0
    2.0976    0.4225    0.9687 N   0  0  0  1  0  0  0  0  0  0  0  0
    1.3873    0.5115    2.1264 C   0  0  0  1  0  0  0  0  0  0  0  0
    0.6688   -0.1902    2.3969 H   0  0  0  1  0  0  0  0  0  0  0  0
    1.6757    1.5437    2.8715 N   0  0  0  1  0  0  0  0  0  0  0  0
    2.6684    2.1940    2.1551 C   0  0  0  1  0  0  0  0  0  0  0  0
    3.4108    3.3534    2.3586 C   0  0  0  1  0  0  0  0  0  0  0  0
    3.1477    4.0389    3.5004 N   0  0  0  1  0  0  0  0  0  0  0  0
    3.6648    4.8418    3.7201 H   0  0  0  1  0  0  0  0  0  0  0  0
    2.4407    3.7308    4.1050 H   0  0  0  1  0  0  0  0  0  0  0  0
    4.3190    3.7271    1.4508 N   0  0  0  1  0  0  0  0  0  0  0  0
    4.4677    2.9624    0.3576 C   0  0  0  1  0  0  0  0  0  0  0  0
    5.1804    3.2886   -0.3260 H   0  0  0  1  0  0  0  0  0  0  0  0
    3.8280    1.8460    0.0312 N   0  0  0  1  0  0  0  0  0  0  0  0
    2.9412    1.5033    0.9667 C   0  0  0  1  0  0  0  0  0  0  0  0
  1  2  1  0  0  0  0
  1  3  1  0  0  0  0
  1  4  1  0  0  0  0
  1  5  1  0  0  0  0
  5  6  1  0  0  0  0
  5  7  1  0  0  0  0
  5 10  1  0  0  0  0
  7  8  1  0  0  0  0
  7  9  2  0  0  0  0
 10 11  1  0  0  0  0
 10 12  1  0  0  0  0
 10 13  1  0  0  0  0
 13 14  1  0  0  0  0
 13 15  1  0  0  0  0
 13 16  1  0  0  0  0
 16 17  1  0  0  0  0
 16 21  1  0  0  0  0
 17 18  1  0  0  0  0
 17 19  1  0  0  0  0
 17 20  1  0  0  0  0
 21 22  1  0  0  0  0
 21 23  1  0  0  0  0
 21 24  1  0  0  0  0
 24 25  1  0  0  0  0
 24 26  1  0  0  0  0
 24 27  1  0  0  0  0
 26 35  1  0  0  0  0
 27 28  1  0  0  0  0
 27 29  1  0  0  0  0
 27 31  1  0  0  0  0
 29 30  1  0  0  0  0
 31 32  1  0  0  0  0
 31 33  1  0  0  0  0
 31 35  1  0  0  0  0
 33 34  1  0  0  0  0
 35 36  1  0  0  0  0
 35 37  1  0  0  0  0
 37 38  1  0  0  0  0
 37 50  1  0  0  0  0
 38 39  1  0  0  0  0
 38 40  2  0  0  0  0
 40 41  1  0  0  0  0
 41 42  1  0  0  0  0
 41 50  2  0  0  0  0
 42 43  1  0  0  0  0
 42 46  2  0  0  0  0
 43 44  1  0  0  0  0
 43 45  1  0  0  0  0
 46 47  1  0  0  0  0
 47 48  1  0  0  0  0
 47 49  2  0  0  0  0
 49 50  1  0  0  0  0
M  END
> <ConfClashScore>
0 

> <ConfOneFourInteractionScore>
-0.991275 

> <ConfScore>
0.135464 

> <ConfScorePBest>
0.00521045 

> <ConfTolerance>
1.7655 

$$$$
SAM.****
  PyMOL2.4          3D                             0

 50 52  0  0  0  0  0  0  0  0999 V2000
   -4.6406    1.4099   -2.6402 N   0  3  0  1  0  0  0  0  0  0  0  0
   -4.0049    1.0743   -3.4055 H   0  0  0  1  0  0  0  0  0  0  0  0
   -5.5250    1.7886   -3.0609 H   0  0  0  1  0  0  0  0  0  0  0  0
   -4.8714    0.6094   -2.0010 H   0  0  0  1  0  0  0  0  0  0  0  0
   -3.9605    2.4844   -1.8641 C   0  0  0  1  0  0  0  0  0  0  0  0
   -4.5963    2.8146   -1.0693 H   0  0  0  1  0  0  0  0  0  0  0  0
   -3.6786    3.6294   -2.7750 C   0  0  0  1  0  0  0  0  0  0  0  0
   -3.6940    4.8078   -2.0962 O   0  5  0  1  0  0  0  0  0  0  0  0
   -3.4572    3.5744   -3.9735 O   0  0  0  1  0  0  0  0  0  0  0  0
   -2.6959    1.8869   -1.2779 C   0  0  0  1  0  0  0  0  0  0  0  0
   -2.1789    2.6512   -0.7362 H   0  0  0  1  0  0  0  0  0  0  0  0
   -2.0804    1.5401   -2.0815 H   0  0  0  1  0  0  0  0  0  0  0  0
   -2.9562    0.7384   -0.3484 C   0  0  0  1  0  0  0  0  0  0  0  0
   -3.0830   -0.0439   -1.0674 H   0  0  0  1  0  0  0  0  0  0  0  0
   -3.9123    1.0331    0.0311 H   0  0  0  1  0  0  0  0  0  0  0  0
   -2.3485   -0.2758    1.1049 S   0  3  0  1  0  0  0  0  0  0  0  0
   -2.3184    1.1209    2.2762 C   0  0  0  1  0  0  0  0  0  0  0  0
   -2.4628    0.7555    3.2714 H   0  0  0  1  0  0  0  0  0  0  0  0
   -3.1014    1.8080    2.0317 H   0  0  0  1  0  0  0  0  0  0  0  0
   -1.3735    1.6189    2.2129 H   0  0  0  1  0  0  0  0  0  0  0  0
   -0.7962   -0.8015    0.5648 C   0  0  0  1  0  0  0  0  0  0  0  0
   -0.3048   -0.8976    1.5104 H   0  0  0  1  0  0  0  0  0  0  0  0
   -0.4666    0.0938    0.0803 H   0  0  0  1  0  0  0  0  0  0  0  0
   -0.0070   -1.8178   -0.2290 C   0  0  0  1  0  0  0  0  0  0  0  0
   -0.6759   -2.4044   -0.8233 H   0  0  0  1  0  0  0  0  0  0  0  0
    0.9836   -1.1705   -1.0548 O   0  0  0  1  0  0  0  0  0  0  0  0
    0.8363   -2.7192    0.7088 C   0  0  0  1  0  0  0  0  0  0  0  0
    0.3118   -2.9336    1.6164 H   0  0  0  1  0  0  0  0  0  0  0  0
    1.1965   -3.9427    0.0658 O   0  0  0  1  0  0  0  0  0  0  0  0
    1.2310   -4.6483    0.7158 H   0  0  0  1  0  0  0  0  0  0  0  0
    2.0831   -1.8341    0.9743 C   0  0  0  1  0  0  0  0  0  0  0  0
    1.9926   -1.3206    1.9087 H   0  0  0  1  0  0  0  0  0  0  0  0
    3.2739   -2.6228    0.9770 O   0  0  0  1  0  0  0  0  0  0  0  0
    3.7111   -2.5460    0.1258 H   0  0  0  1  0  0  0  0  0  0  0  0
    2.0901   -0.8362   -0.2001 C   0  0  0  1  0  0  0  0  0  0  0  0
    3.0087   -0.9168   -0.7429 H   0  0  0  1  0  0  0  0  0  0  0  0
    1.9383    0.5305    0.3036 N   0  0  0  1  0  0  0  0  0  0  0  0
    2.4955    1.1155    1.3991 C   0  0  0  1  0  0  0  0  0  0  0  0
    3.0796    0.5876    2.0787 H   0  0  0  1  0  0  0  0  0  0  0  0
    2.2416    2.3889    1.5324 N   0  0  0  1  0  0  0  0  0  0  0  0
    1.4559    2.6805    0.4282 C   0  0  0  1  0  0  0  0  0  0  0  0
    0.8340    3.8330   -0.0431 C   0  0  0  1  0  0  0  0  0  0  0  0
    0.8778    5.0836    0.5635 N   0  0  0  1  0  0  0  0  0  0  0  0
    0.4607    5.8551    0.1263 H   0  0  0  1  0  0  0  0  0  0  0  0
    1.3258    5.1934    1.4282 H   0  0  0  1  0  0  0  0  0  0  0  0
    0.1204    3.7864   -1.1733 N   0  0  0  1  0  0  0  0  0  0  0  0
    0.0217    2.6073   -1.8072 C   0  0  0  1  0  0  0  0  0  0  0  0
   -0.5447    2.6115   -2.6794 H   0  0  0  1  0  0  0  0  0  0  0  0
    0.5494    1.4366   -1.4711 N   0  0  0  1  0  0  0  0  0  0  0  0
    1.2608    1.5294   -0.3467 C   0  0  0  1  0  0  0  0  0  0  0  0
  1  2  1  0  0  0  0
  1  3  1  0  0  0  0
  1  4  1  0  0  0  0
  1  5  1  0  0  0  0
  5  6  1  0  0  0  0
  5  7  1  0  0  0  0
  5 10  1  0  0  0  0
  7  8  1  0  0  0  0
  7  9  2  0  0  0  0
 10 11  1  0  0  0  0
 10 12  1  0  0  0  0
 10 13  1  0  0  0  0
 13 14  1  0  0  0  0
 13 15  1  0  0  0  0
 13 16  1  0  0  0  0
 16 17  1  0  0  0  0
 16 21  1  0  0  0  0
 17 18  1  0  0  0  0
 17 19  1  0  0  0  0
 17 20  1  0  0  0  0
 21 22  1  0  0  0  0
 21 23  1  0  0  0  0
 21 24  1  0  0  0  0
 24 25  1  0  0  0  0
 24 26  1  0  0  0  0
 24 27  1  0  0  0  0
 26 35  1  0  0  0  0
 27 28  1  0  0  0  0
 27 29  1  0  0  0  0
 27 31  1  0  0  0  0
 29 30  1  0  0  0  0
 31 32  1  0  0  0  0
 31 33  1  0  0  0  0
 31 35  1  0  0  0  0
 33 34  1  0  0  0  0
 35 36  1  0  0  0  0
 35 37  1  0  0  0  0
 37 38  1  0  0  0  0
 37 50  1  0  0  0  0
 38 39  1  0  0  0  0
 38 40  2  0  0  0  0
 40 41  1  0  0  0  0
 41 42  1  0  0  0  0
 41 50  2  0  0  0  0
 42 43  1  0  0  0  0
 42 46  2  0  0  0  0
 43 44  1  0  0  0  0
 43 45  1  0  0  0  0
 46 47  1  0  0  0  0
 47 48  1  0  0  0  0
 47 49  2  0  0  0  0
 49 50  1  0  0  0  0
M  END
> <ConfClashScore>
0 

> <ConfOneFourInteractionScore>
-0.975756 

> <ConfScore>
0.137385 

> <ConfScorePBest>
0.00510745 

> <ConfTolerance>
2.2165 

$$$$
SAM.****
  PyMOL2.4          3D                             0

 50 52  0  0  0  0  0  0  0  0999 V2000
   -6.5516    1.9471   -0.7666 N   0  3  0  1  0  0  0  0  0  0  0  0
   -6.3652    2.9300   -0.4478 H   0  0  0  1  0  0  0  0  0  0  0  0
   -7.2676    1.5055   -0.1383 H   0  0  0  1  0  0  0  0  0  0  0  0
   -6.9119    1.9616   -1.7527 H   0  0  0  1  0  0  0  0  0  0  0  0
   -5.2878    1.1578   -0.7111 C   0  0  0  1  0  0  0  0  0  0  0  0
   -4.5874    1.5653   -1.4098 H   0  0  0  1  0  0  0  0  0  0  0  0
   -5.6159   -0.2371   -1.1195 C   0  0  0  1  0  0  0  0  0  0  0  0
   -6.9436   -0.3684   -1.3835 O   0  5  0  1  0  0  0  0  0  0  0  0
   -4.8393   -1.1726   -1.2201 O   0  0  0  1  0  0  0  0  0  0  0  0
   -4.6719    1.1869    0.6745 C   0  0  0  1  0  0  0  0  0  0  0  0
   -5.3624    0.7448    1.3620 H   0  0  0  1  0  0  0  0  0  0  0  0
   -4.4996    2.2070    0.9478 H   0  0  0  1  0  0  0  0  0  0  0  0
   -3.3712    0.4446    0.7630 C   0  0  0  1  0  0  0  0  0  0  0  0
   -3.6348   -0.4368    0.2165 H   0  0  0  1  0  0  0  0  0  0  0  0
   -3.3646    0.2267    1.8105 H   0  0  0  1  0  0  0  0  0  0  0  0
   -1.5937    0.4638    0.4536 S   0  3  0  1  0  0  0  0  0  0  0  0
   -1.5474    0.5809   -1.3405 C   0  0  0  1  0  0  0  0  0  0  0  0
   -1.2252    1.5604   -1.6263 H   0  0  0  1  0  0  0  0  0  0  0  0
   -2.5251    0.3981   -1.7349 H   0  0  0  1  0  0  0  0  0  0  0  0
   -0.8644   -0.1461   -1.7276 H   0  0  0  1  0  0  0  0  0  0  0  0
   -1.1060   -1.2366    0.8252 C   0  0  0  1  0  0  0  0  0  0  0  0
   -1.9800   -1.8516    0.7728 H   0  0  0  1  0  0  0  0  0  0  0  0
   -0.7124   -1.2593    1.8199 H   0  0  0  1  0  0  0  0  0  0  0  0
   -0.0669   -1.8189   -0.1035 C   0  0  0  1  0  0  0  0  0  0  0  0
   -0.5514   -2.3837   -0.8724 H   0  0  0  1  0  0  0  0  0  0  0  0
    0.7276   -0.7686   -0.6827 O   0  0  0  1  0  0  0  0  0  0  0  0
    0.9131   -2.7206    0.6870 C   0  0  0  1  0  0  0  0  0  0  0  0
    0.4907   -3.0208    1.6232 H   0  0  0  1  0  0  0  0  0  0  0  0
    1.2697   -3.8798   -0.0691 O   0  0  0  1  0  0  0  0  0  0  0  0
    0.6639   -4.5955    0.1367 H   0  0  0  1  0  0  0  0  0  0  0  0
    2.1126   -1.8128    0.8945 C   0  0  0  1  0  0  0  0  0  0  0  0
    2.0066   -1.2306    1.7860 H   0  0  0  1  0  0  0  0  0  0  0  0
    3.3249   -2.5666    0.9583 O   0  0  0  1  0  0  0  0  0  0  0  0
    4.0251   -2.0174    1.3185 H   0  0  0  1  0  0  0  0  0  0  0  0
    2.0791   -0.9214   -0.3571 C   0  0  0  1  0  0  0  0  0  0  0  0
    2.6050   -1.3906   -1.1622 H   0  0  0  1  0  0  0  0  0  0  0  0
    2.6838    0.3800   -0.0713 N   0  0  0  1  0  0  0  0  0  0  0  0
    3.5563    1.0701   -0.8557 C   0  0  0  1  0  0  0  0  0  0  0  0
    3.8798    0.7153   -1.7783 H   0  0  0  1  0  0  0  0  0  0  0  0
    3.9564    2.2106   -0.3629 N   0  0  0  1  0  0  0  0  0  0  0  0
    3.2879    2.2931    0.8487 C   0  0  0  1  0  0  0  0  0  0  0  0
    3.2582    3.2284    1.8789 C   0  0  0  1  0  0  0  0  0  0  0  0
    3.9597    4.4353    1.9532 N   0  0  0  1  0  0  0  0  0  0  0  0
    3.8312    5.0303    2.7213 H   0  0  0  1  0  0  0  0  0  0  0  0
    4.5799    4.6865    1.2372 H   0  0  0  1  0  0  0  0  0  0  0  0
    2.4903    3.0090    2.9516 N   0  0  0  1  0  0  0  0  0  0  0  0
    1.7805    1.8705    2.9953 C   0  0  0  1  0  0  0  0  0  0  0  0
    1.1995    1.7351    3.8473 H   0  0  0  1  0  0  0  0  0  0  0  0
    1.7198    0.8942    2.0980 N   0  0  0  1  0  0  0  0  0  0  0  0
    2.4898    1.1574    1.0412 C   0  0  0  1  0  0  0  0  0  0  0  0
  1  2  1  0  0  0  0
  1  3  1  0  0  0  0
  1  4  1  0  0  0  0
  1  5  1  0  0  0  0
  5  6  1  0  0  0  0
  5  7  1  0  0  0  0
  5 10  1  0  0  0  0
  7  8  1  0  0  0  0
  7  9  2  0  0  0  0
 10 11  1  0  0  0  0
 10 12  1  0  0  0  0
 10 13  1  0  0  0  0
 13 14  1  0  0  0  0
 13 15  1  0  0  0  0
 13 16  1  0  0  0  0
 16 17  1  0  0  0  0
 16 21  1  0  0  0  0
 17 18  1  0  0  0  0
 17 19  1  0  0  0  0
 17 20  1  0  0  0  0
 21 22  1  0  0  0  0
 21 23  1  0  0  0  0
 21 24  1  0  0  0  0
 24 25  1  0  0  0  0
 24 26  1  0  0  0  0
 24 27  1  0  0  0  0
 26 35  1  0  0  0  0
 27 28  1  0  0  0  0
 27 29  1  0  0  0  0
 27 31  1  0  0  0  0
 29 30  1  0  0  0  0
 31 32  1  0  0  0  0
 31 33  1  0  0  0  0
 31 35  1  0  0  0  0
 33 34  1  0  0  0  0
 35 36  1  0  0  0  0
 35 37  1  0  0  0  0
 37 38  1  0  0  0  0
 37 50  1  0  0  0  0
 38 39  1  0  0  0  0
 38 40  2  0  0  0  0
 40 41  1  0  0  0  0
 41 42  1  0  0  0  0
 41 50  2  0  0  0  0
 42 43  1  0  0  0  0
 42 46  2  0  0  0  0
 43 44  1  0  0  0  0
 43 45  1  0  0  0  0
 46 47  1  0  0  0  0
 47 48  1  0  0  0  0
 47 49  2  0  0  0  0
 49 50  1  0  0  0  0
M  END
> <ConfClashScore>
0 

> <ConfOneFourInteractionScore>
-0.983428 

> <ConfScore>
0.144401 

> <ConfScorePBest>
0.00500445 

> <ConfTolerance>
2.19029 

$$$$
SAM.****
  PyMOL2.4          3D                             0

 50 52  0  0  0  0  0  0  0  0999 V2000
   -3.8033   -1.7194   -4.9285 N   0  3  0  1  0  0  0  0  0  0  0  0
   -4.8336   -1.8177   -5.1051 H   0  0  0  1  0  0  0  0  0  0  0  0
   -3.3720   -2.6721   -4.8344 H   0  0  0  1  0  0  0  0  0  0  0  0
   -3.3577   -1.2106   -5.7317 H   0  0  0  1  0  0  0  0  0  0  0  0
   -3.5855   -0.9498   -3.6715 C   0  0  0  1  0  0  0  0  0  0  0  0
   -4.3828   -0.2422   -3.5797 H   0  0  0  1  0  0  0  0  0  0  0  0
   -2.3179   -0.1768   -3.7968 C   0  0  0  1  0  0  0  0  0  0  0  0
   -1.8449    0.2137   -2.5829 O   0  5  0  1  0  0  0  0  0  0  0  0
   -1.7629    0.0805   -4.8523 O   0  0  0  1  0  0  0  0  0  0  0  0
   -3.6367   -1.8530   -2.4543 C   0  0  0  1  0  0  0  0  0  0  0  0
   -2.7388   -2.4347   -2.4375 H   0  0  0  1  0  0  0  0  0  0  0  0
   -4.4808   -2.5019   -2.5607 H   0  0  0  1  0  0  0  0  0  0  0  0
   -3.7587   -1.1421   -1.1172 C   0  0  0  1  0  0  0  0  0  0  0  0
   -4.7932   -1.0653   -0.8548 H   0  0  0  1  0  0  0  0  0  0  0  0
   -3.3381   -0.1619   -1.2023 H   0  0  0  1  0  0  0  0  0  0  0  0
   -2.8971   -2.0375    0.1623 S   0  3  0  1  0  0  0  0  0  0  0  0
   -3.3228   -1.0827    1.6099 C   0  0  0  1  0  0  0  0  0  0  0  0
   -4.0702   -0.3608    1.3545 H   0  0  0  1  0  0  0  0  0  0  0  0
   -2.4513   -0.5799    1.9741 H   0  0  0  1  0  0  0  0  0  0  0  0
   -3.7019   -1.7352    2.3684 H   0  0  0  1  0  0  0  0  0  0  0  0
   -1.2655   -1.5448   -0.1073 C   0  0  0  1  0  0  0  0  0  0  0  0
   -1.0894   -1.0144    0.8051 H   0  0  0  1  0  0  0  0  0  0  0  0
   -1.4224   -0.8459   -0.9022 H   0  0  0  1  0  0  0  0  0  0  0  0
    0.1508   -1.9678   -0.4253 C   0  0  0  1  0  0  0  0  0  0  0  0
    0.1396   -2.6848   -1.2194 H   0  0  0  1  0  0  0  0  0  0  0  0
    0.9533   -0.8216   -0.7879 O   0  0  0  1  0  0  0  0  0  0  0  0
    0.8291   -2.5522    0.8172 C   0  0  0  1  0  0  0  0  0  0  0  0
    0.3593   -2.2008    1.7121 H   0  0  0  1  0  0  0  0  0  0  0  0
    0.8004   -3.9801    0.7928 O   0  0  0  1  0  0  0  0  0  0  0  0
    0.7665   -4.3153    1.6917 H   0  0  0  1  0  0  0  0  0  0  0  0
    2.2410   -2.0384    0.7107 C   0  0  0  1  0  0  0  0  0  0  0  0
    2.6956   -1.9567    1.6759 H   0  0  0  1  0  0  0  0  0  0  0  0
    3.0358   -2.8853   -0.1206 O   0  0  0  1  0  0  0  0  0  0  0  0
    3.7428   -2.3719   -0.5182 H   0  0  0  1  0  0  0  0  0  0  0  0
    2.0493   -0.6560    0.0703 C   0  0  0  1  0  0  0  0  0  0  0  0
    2.9212   -0.3688   -0.4795 H   0  0  0  1  0  0  0  0  0  0  0  0
    1.7587    0.3606    1.0988 N   0  0  0  1  0  0  0  0  0  0  0  0
    0.6172    1.0713    1.3099 C   0  0  0  1  0  0  0  0  0  0  0  0
   -0.2327    0.9518    0.7225 H   0  0  0  1  0  0  0  0  0  0  0  0
    0.6695    1.9142    2.3052 N   0  0  0  1  0  0  0  0  0  0  0  0
    1.9509    1.7457    2.8063 C   0  0  0  1  0  0  0  0  0  0  0  0
    2.6704    2.3269    3.8462 C   0  0  0  1  0  0  0  0  0  0  0  0
    2.1519    3.2968    4.6631 N   0  0  0  1  0  0  0  0  0  0  0  0
    2.6574    3.5996    5.4462 H   0  0  0  1  0  0  0  0  0  0  0  0
    1.2755    3.6878    4.4644 H   0  0  0  1  0  0  0  0  0  0  0  0
    3.9285    1.9383    4.0803 N   0  0  0  1  0  0  0  0  0  0  0  0
    4.4564    0.9989    3.2798 C   0  0  0  1  0  0  0  0  0  0  0  0
    5.4376    0.7271    3.4915 H   0  0  0  1  0  0  0  0  0  0  0  0
    3.8950    0.3701    2.2544 N   0  0  0  1  0  0  0  0  0  0  0  0
    2.6398    0.7781    2.0626 C   0  0  0  1  0  0  0  0  0  0  0  0
  1  2  1  0  0  0  0
  1  3  1  0  0  0  0
  1  4  1  0  0  0  0
  1  5  1  0  0  0  0
  5  6  1  0  0  0  0
  5  7  1  0  0  0  0
  5 10  1  0  0  0  0
  7  8  1  0  0  0  0
  7  9  2  0  0  0  0
 10 11  1  0  0  0  0
 10 12  1  0  0  0  0
 10 13  1  0  0  0  0
 13 14  1  0  0  0  0
 13 15  1  0  0  0  0
 13 16  1  0  0  0  0
 16 17  1  0  0  0  0
 16 21  1  0  0  0  0
 17 18  1  0  0  0  0
 17 19  1  0  0  0  0
 17 20  1  0  0  0  0
 21 22  1  0  0  0  0
 21 23  1  0  0  0  0
 21 24  1  0  0  0  0
 24 25  1  0  0  0  0
 24 26  1  0  0  0  0
 24 27  1  0  0  0  0
 26 35  1  0  0  0  0
 27 28  1  0  0  0  0
 27 29  1  0  0  0  0
 27 31  1  0  0  0  0
 29 30  1  0  0  0  0
 31 32  1  0  0  0  0
 31 33  1  0  0  0  0
 31 35  1  0  0  0  0
 33 34  1  0  0  0  0
 35 36  1  0  0  0  0
 35 37  1  0  0  0  0
 37 38  1  0  0  0  0
 37 50  1  0  0  0  0
 38 39  1  0  0  0  0
 38 40  2  0  0  0  0
 40 41  1  0  0  0  0
 41 42  1  0  0  0  0
 41 50  2  0  0  0  0
 42 43  1  0  0  0  0
 42 46  2  0  0  0  0
 43 44  1  0  0  0  0
 43 45  1  0  0  0  0
 46 47  1  0  0  0  0
 47 48  1  0  0  0  0
 47 49  2  0  0  0  0
 49 50  1  0  0  0  0
M  END
> <ConfClashScore>
0 

> <ConfOneFourInteractionScore>
-0.978224 

> <ConfScore>
0.165426 

> <ConfScorePBest>
0.00490145 

> <ConfTolerance>
3.57069 

$$$$
