# created with PyMOL 2.4.0
@<TRIPOS>MOLECULE
production
43 45 1                 
SMALL
USER_CHARGES
@<TRIPOS>ATOM
1	  P1	38.840	44.912	64.481	P.3	1	L011	0.000	
2	  P2	41.460	43.669	64.941	P.3	1	L011	0.000	
3	  P3	41.845	42.675	62.321	P.3	1	L011	0.000	
4	  C1	39.446	46.555	66.480	C.3	1	L011	0.000	
5	  N1	40.905	48.903	74.149	N.2	1	L011	0.000	
6	  O1	38.578	46.170	65.384	O.3	1	L011	0.000	
7	  C2	38.966	47.848	67.107	C.3	1	L011	0.000	
8	  N2	39.947	49.637	72.067	N.2	1	L011	0.000	
9	  O2	38.980	47.738	68.543	O.3	1	L011	0.000	
10	  C3	39.916	48.998	66.741	C.3	1	L011	0.000	
11	  N3	42.274	47.013	74.328	N.pl3	1	L011	0.000	
12	  O3	39.185	50.196	66.474	O.3	1	L011	0.000	
13	  C4	40.782	49.158	67.967	C.3	1	L011	0.000	
14	  N4	41.878	46.726	71.306	N.2	1	L011	0.000	
15	  O4	41.208	50.513	68.128	O.3	1	L011	0.000	
16	  C5	39.832	48.743	69.081	C.3	1	L011	0.000	
17	  N5	40.588	48.207	70.212	N.2	1	L011	0.000	
18	  O5	38.194	43.752	65.135	O.co2	1	L011	0.000	
19	  C6	40.165	49.711	73.374	C.2	1	L011	0.000	
20	  O6	42.420	43.308	63.690	O.3	1	L011	0.000	
21	  C7	40.587	48.600	71.526	C.2	1	L011	0.000	
22	  O7	40.413	43.221	62.176	O.co2	1	L011	0.000	
23	  C8	41.392	47.670	72.196	C.2	1	L011	0.000	
24	  O8	38.330	45.179	63.063	O.co2	1	L011	0.000	
25	  C9	41.521	47.868	73.567	C.2	1	L011	0.000	
26	  O9	40.749	42.467	65.427	O.co2	1	L011	0.000	
27	 C10	41.377	47.098	70.160	C.2	1	L011	0.000	
28	 O10	42.658	43.067	61.167	O.co2	1	L011	0.000	
29	 O11	40.427	44.723	64.317	O.3	1	L011	0.000	
30	 O12	42.318	44.438	65.876	O.co2	1	L011	0.000	
31	 O13	41.759	41.247	62.630	O.co2	1	L011	0.000	
32	  H1	40.441	46.692	66.109	 H	1	L011	0.000	
33	  H2	39.444	45.783	67.219	 H	1	L011	0.000	
34	  H3	37.976	48.064	66.763	 H	1	L011	0.000	
35	  H4	40.510	48.745	65.887	 H	1	L011	0.000	
36	  H5	38.247	50.031	66.591	 H	1	L011	0.000	
37	  H6	41.637	48.517	67.926	 H	1	L011	0.000	
38	  H7	42.163	50.561	68.051	 H	1	L011	0.000	
39	  H8	39.253	49.582	69.404	 H	1	L011	0.000	
40	  H9	39.698	50.501	73.864	 H	1	L011	0.000	
41	 H10	42.497	47.248	75.254	 H	1	L011	0.000	
42	 H11	42.591	46.167	73.948	 H	1	L011	0.000	
43	 H12	41.564	46.588	69.274	 H	1	L011	0.000	
@<TRIPOS>BOND
1 1 18 1
2 1 24 2
3 1 29 1
4 2 20 1
5 2 26 1
6 2 30 2
7 3 22 1
8 3 28 1
9 3 31 2
10 4 6 1
11 4 7 1
12 4 32 1
13 4 33 1
14 5 25 ar
15 1 6 1
16 7 9 1
17 7 10 1
18 7 34 1
19 8 19 ar
20 9 16 1
21 10 12 1
22 10 35 1
23 11 41 1
24 11 42 1
25 12 36 1
26 10 13 1
27 13 15 1
28 13 37 1
29 14 27 ar
30 15 38 1
31 13 16 1
32 16 17 1
33 16 39 1
34 17 21 ar
35 17 27 ar
36 5 19 ar
37 19 40 1
38 3 20 1
39 8 21 ar
40 21 23 ar
41 14 23 ar
42 11 25 1
43 23 25 ar
44 27 43 1
45 2 29 1
@<TRIPOS>SUBSTRUCTURE
1	L011	1	GROUP	1 Y	L01
