# created with PyMOL 2.5.2
@<TRIPOS>MOLECULE
enzyme_1
31 33 1                 
SMALL
USER_CHARGES
@<TRIPOS>ATOM
1	  PA	38.555	44.767	64.741	P.3	1	ATP410	0.000	
2	  PB	41.320	43.654	64.827	P.3	1	ATP410	0.000	
3	  PG	41.702	42.661	62.502	P.3	1	ATP410	0.000	
4	 C5'	39.793	46.617	66.253	C.3	1	ATP410	0.000	
5	 O5'	38.890	46.272	65.192	O.3	1	ATP410	0.000	
6	 C4'	39.153	47.805	66.960	C.3	1	ATP410	0.000	
7	 O4'	39.096	47.493	68.366	O.3	1	ATP410	0.000	
8	 C3'	39.939	49.118	66.829	C.3	1	ATP410	0.000	
9	 O3'	39.108	50.291	66.666	O.3	1	ATP410	0.000	
10	 C2'	40.694	49.221	68.132	C.3	1	ATP410	0.000	
11	 O2'	41.045	50.557	68.501	O.3	1	ATP410	0.000	
12	 C1'	39.753	48.520	69.100	C.3	1	ATP410	0.000	
13	  N1	40.480	48.972	74.167	N.2	1	ATP410	0.000	
14	 O1A	38.055	43.900	65.817	O.co2	1	ATP410	0.000	
15	 O1B	42.265	43.456	63.667	O.3	1	ATP410	0.000	
16	 O1G	40.525	43.543	62.656	O.co2	1	ATP410	0.000	
17	  C2	39.643	49.686	73.372	C.2	1	ATP410	0.000	
18	 O2A	37.597	44.816	63.622	O.co2	1	ATP410	0.000	
19	 O2B	40.874	42.258	65.565	O.co2	1	ATP410	0.000	
20	 O2G	42.606	43.181	61.276	O.co2	1	ATP410	0.000	
21	  N3	39.604	49.391	72.064	N.2	1	ATP410	0.000	
22	 O3A	39.965	44.208	64.211	O.3	1	ATP410	0.000	
23	 O3B	41.932	44.566	65.860	O.co2	1	ATP410	0.000	
24	 O3G	41.211	41.157	62.206	O.co2	1	ATP410	0.000	
25	  C4	40.364	48.406	71.506	C.2	1	ATP410	0.000	
26	  C5	41.239	47.644	72.314	C.2	1	ATP410	0.000	
27	  C6	41.276	47.962	73.678	C.2	1	ATP410	0.000	
28	  N6	42.089	47.289	74.511	N.pl3	1	ATP410	0.000	
29	  N7	41.835	46.774	71.527	N.2	1	ATP410	0.000	
30	  C8	41.387	46.960	70.281	C.2	1	ATP410	0.000	
31	  N9	40.489	47.968	70.284	N.pl3	1	ATP410	0.000	
@<TRIPOS>BOND
1 1 5 1
2 1 14 1
3 1 18 2
4 1 22 1
5 2 15 1
6 2 19 1
7 2 22 1
8 2 23 2
9 3 16 1
10 3 24 2
11 4 5 1
12 4 6 1
13 6 7 1
14 6 8 1
15 7 12 1
16 8 9 1
17 8 10 1
18 10 11 1
19 10 12 1
20 12 31 1
21 27 28 1
22 3 15 1
23 29 30 2
24 25 26 2
25 17 21 2
26 13 27 2
27 26 27 1
28 13 17 1
29 21 25 1
30 25 31 1
31 30 31 1
32 3 20 1
33 26 29 1
@<TRIPOS>SUBSTRUCTURE
1	ATP410	1	GROUP	1 A	ATP
