# created with PyMOL 2.4.0
@<TRIPOS>MOLECULE
production
7 6 1                   
SMALL
USER_CHARGES
@<TRIPOS>ATOM
1	  C1	36.254	44.836	61.025	C.2	1	L021	0.000	
2	  O1	35.958	45.777	61.897	O.co2	1	L021	0.000	
3	  C2	35.073	44.453	60.162	C.3	1	L021	0.000	
4	  O2	37.343	44.324	60.916	O.co2	1	L021	0.000	
5	  H1	34.258	44.359	60.848	 H	1	L021	0.000	
6	  H2	35.257	43.526	59.662	 H	1	L021	0.000	
7	  H3	34.872	45.215	59.438	 H	1	L021	0.000	
@<TRIPOS>BOND
1 1 2 ar
2 1 3 1
3 1 4 ar
4 3 5 1
5 3 6 1
6 3 7 1
@<TRIPOS>SUBSTRUCTURE
1	L021	1	GROUP	1 Z	L02
