# created with PyMOL 2.5.2
@<TRIPOS>MOLECULE
enzyme_1
7 6 1                   
SMALL
USER_CHARGES
@<TRIPOS>ATOM
1	   C	36.545	44.878	60.838	C.2	1	ACT0	0.000	
2	   O	36.451	45.746	61.689	O.co2	1	ACT0	0.000	
3	 OXT	37.608	44.305	60.667	O.co2	1	ACT0	0.000	
4	 CH3	35.349	44.512	59.998	C.3	1	ACT0	0.000	
5	  H1	35.330	45.133	59.102	 H	1	ACT0	0.000	
6	  H2	35.412	43.462	59.711	 H	1	ACT0	0.000	
7	  H3	34.437	44.676	60.573	 H	1	ACT0	0.000	
@<TRIPOS>BOND
1 1 4 1
2 4 5 1
3 4 6 1
4 4 7 1
5 1 2 2
6 1 3 1
@<TRIPOS>SUBSTRUCTURE
1	ACT0	1	GROUP	1 ****	ACT
