# created with PyMOL 2.5.2
@<TRIPOS>MOLECULE
production
46 48 1                 
SMALL
USER_CHARGES
@<TRIPOS>ATOM
1	  P1	-66.952	7.752	17.009	P.3	1	L011	0.000	
2	  P2	-71.923	11.051	16.841	P.3	1	L011	0.000	
3	 O1P	-66.177	9.171	16.965	O.3	1	L011	0.000	
4	 O2P	-67.176	7.402	15.446	O.3	1	L011	0.000	
5	 O3P	-66.276	6.677	17.808	O.3	1	L011	0.000	
6	 O4P	-72.184	11.610	15.471	O.3	1	L011	0.000	
7	 O5P	-73.265	10.680	17.670	O.3	1	L011	0.000	
8	 O6P	-71.124	12.017	17.867	O.3	1	L011	0.000	
9	 C5'	-71.588	8.404	17.115	C.3	1	L011	0.000	
10	 O5'	-71.042	9.696	16.910	O.3	1	L011	0.000	
11	 C4'	-70.739	7.611	18.091	C.3	1	L011	0.000	
12	 O4'	-71.435	6.417	18.484	O.3	1	L011	0.000	
13	 C3'	-69.425	7.130	17.498	C.3	1	L011	0.000	
14	 O3'	-68.439	8.140	17.498	O.3	1	L011	0.000	
15	 C2'	-69.083	5.951	18.390	C.3	1	L011	0.000	
16	 O2'	-68.419	6.377	19.578	O.3	1	L011	0.000	
17	 C1'	-70.458	5.389	18.754	C.3	1	L011	0.000	
18	  N1	-74.363	2.478	17.191	N.2	1	L011	0.000	
19	  C2	-73.935	2.577	18.473	C.2	1	L011	0.000	
20	  S2	-69.634	12.460	17.364	S.3	1	L011	0.000	
21	  N3	-72.786	3.107	18.944	N.2	1	L011	0.000	
22	  C4	-72.036	3.572	17.934	C.2	1	L011	0.000	
23	  C5	-72.337	3.543	16.583	C.2	1	L011	0.000	
24	  C6	-73.553	2.969	16.222	C.2	1	L011	0.000	
25	  N6	-73.940	2.897	14.873	N.pl3	1	L011	0.000	
26	  N7	-71.328	4.111	15.847	N.pl3	1	L011	0.000	
27	  C8	-70.429	4.480	16.735	C.3	1	L011	0.000	
28	  N9	-70.811	4.175	18.016	N.pl3	1	L011	0.000	
29	 OS1	-69.182	13.537	18.501	O.3	1	L011	0.000	
30	 OS2	-69.756	13.176	16.108	 O	1	L011	0.000	
31	 OS3	-68.752	11.313	17.478	O.2	1	L011	0.000	
32	HN61	-73.347	3.291	14.168	 H	1	L011	0.000	
33	HN62	-74.847	2.538	14.640	 H	1	L011	0.000	
34	 HO1	-69.336	13.256	19.433	 H	1	L011	0.000	
35	HO1P	-65.220	9.182	16.750	 H	1	L011	0.000	
36	HO2'	-67.540	5.960	19.585	 H	1	L011	0.000	
37	HO2P	-66.424	7.042	14.928	 H	1	L011	0.000	
38	HO5P	-73.998	11.331	17.703	 H	1	L011	0.000	
39	  H2	-74.609	2.175	19.222	 H	1	L011	0.000	
40	  H8	-69.489	4.968	16.515	 H	1	L011	0.000	
41	 H1'	-70.533	5.114	19.811	 H	1	L011	0.000	
42	 H2'	-68.423	5.229	17.899	 H	1	L011	0.000	
43	 H3'	-69.578	6.780	16.470	 H	1	L011	0.000	
44	 H4'	-70.570	8.221	18.986	 H	1	L011	0.000	
45	H5'1	-71.834	7.790	16.247	 H	1	L011	0.000	
46	H5'2	-72.534	8.405	17.659	 H	1	L011	0.000	
@<TRIPOS>BOND
1 1 3 1
2 1 4 1
3 1 5 1
4 1 14 1
5 2 6 1
6 2 7 1
7 2 8 1
8 2 10 1
9 3 35 1
10 4 37 1
11 7 38 1
12 8 20 1
13 9 10 1
14 9 11 1
15 9 45 1
16 9 46 1
17 11 12 1
18 11 13 1
19 11 44 1
20 12 17 1
21 13 14 1
22 13 15 1
23 13 43 1
24 15 16 1
25 15 17 1
26 15 42 1
27 16 36 1
28 17 28 1
29 17 41 1
30 18 19 ar
31 18 24 ar
32 19 21 ar
33 19 39 1
34 20 29 1
35 20 30 1
36 20 31 2
37 21 22 ar
38 22 23 ar
39 22 28 1
40 23 24 ar
41 23 26 1
42 24 25 1
43 25 32 1
44 25 33 1
45 26 27 1
46 27 28 1
47 27 40 1
48 29 34 1
@<TRIPOS>SUBSTRUCTURE
1	L011	1	GROUP	1 Y	L01
