# created with PyMOL 2.5.2
@<TRIPOS>MOLECULE
L01_0001
44 46 1                 
SMALL
USER_CHARGES
@<TRIPOS>ATOM
1	  P1	-66.952	7.752	17.009	P.3	1	L011	0.000	
2	  P2	-71.923	11.051	16.841	P.3	1	L011	0.000	
3	  C1	-71.588	8.404	17.115	C.3	1	L011	0.000	
4	  N1	-74.363	2.478	17.191	N.2	1	L011	0.000	
5	  O1	-66.177	9.171	16.965	O.co2	1	L011	0.000	
6	  S1	-69.634	12.460	17.364	S.3	1	L011	0.000	
7	  C2	-70.739	7.611	18.091	C.3	1	L011	0.000	
8	  N2	-72.786	3.107	18.944	N.2	1	L011	0.000	
9	  O2	-67.176	7.402	15.446	O.co2	1	L011	0.000	
10	  C3	-69.425	7.130	17.498	C.3	1	L011	0.000	
11	  N3	-73.940	2.897	14.873	N.pl3	1	L011	0.000	
12	  O3	-66.276	6.677	17.808	O.co2	1	L011	0.000	
13	  C4	-69.083	5.951	18.390	C.3	1	L011	0.000	
14	  N4	-71.328	4.111	15.847	N.pl3	1	L011	0.000	
15	  O4	-72.184	11.610	15.471	O.co2	1	L011	0.000	
16	  C5	-70.458	5.389	18.754	C.3	1	L011	0.000	
17	  N5	-70.811	4.175	18.016	N.pl3	1	L011	0.000	
18	  O5	-73.265	10.680	17.670	O.co2	1	L011	0.000	
19	  C6	-73.935	2.577	18.473	C.2	1	L011	0.000	
20	  O6	-71.124	12.017	17.867	O.3	1	L011	0.000	
21	  C7	-72.036	3.572	17.934	C.2	1	L011	0.000	
22	  O7	-71.042	9.696	16.910	O.3	1	L011	0.000	
23	  C8	-72.337	3.543	16.583	C.2	1	L011	0.000	
24	  O8	-71.435	6.417	18.484	O.3	1	L011	0.000	
25	  C9	-73.553	2.969	16.222	C.2	1	L011	0.000	
26	  O9	-68.439	8.140	17.498	O.3	1	L011	0.000	
27	 C10	-70.429	4.480	16.735	C.3	1	L011	0.000	
28	 O10	-68.419	6.377	19.578	O.3	1	L011	0.000	
29	 O11	-69.182	13.537	18.501	O.3	1	L011	0.000	
30	 O12	-69.756	13.176	16.108	 O	1	L011	0.000	
31	 O13	-68.752	11.313	17.478	O.2	1	L011	0.000	
32	  H1	-71.625	7.876	16.162	 H	1	L011	0.000	
33	  H2	-72.597	8.502	17.516	 H	1	L011	0.000	
34	  H3	-70.543	8.292	18.919	 H	1	L011	0.000	
35	  H4	-69.489	6.855	16.445	 H	1	L011	0.000	
36	  H5	-68.419	5.237	17.903	 H	1	L011	0.000	
37	  H6	-67.589	6.783	19.317	 H	1	L011	0.000	
38	  H7	-70.437	5.106	19.806	 H	1	L011	0.000	
39	  H8	-74.605	2.177	19.220	 H	1	L011	0.000	
40	  H9	-73.334	3.264	14.153	 H	1	L011	0.000	
41	 H10	-74.825	2.478	14.623	 H	1	L011	0.000	
42	 H11	-71.284	4.222	14.844	 H	1	L011	0.000	
43	 H12	-70.283	5.558	16.660	 H	1	L011	0.000	
44	 H13	-69.491	3.970	16.518	 H	1	L011	0.000	
@<TRIPOS>BOND
1 1 5 1
2 1 9 1
3 1 12 2
4 1 26 1
5 2 15 1
6 2 18 2
7 2 20 1
8 2 22 1
9 3 7 1
10 3 22 1
11 3 32 1
12 3 33 1
13 4 19 ar
14 4 25 ar
15 6 29 1
16 6 30 1
17 6 31 2
18 7 10 1
19 7 24 1
20 7 34 1
21 8 21 ar
22 10 13 1
23 10 26 1
24 10 35 1
25 11 40 1
26 11 41 1
27 13 16 1
28 13 28 1
29 13 36 1
30 14 27 1
31 14 42 1
32 16 17 1
33 16 38 1
34 8 19 ar
35 19 39 1
36 6 20 1
37 17 21 1
38 21 23 ar
39 14 23 1
40 23 25 ar
41 16 24 1
42 11 25 1
43 17 27 1
44 27 43 1
45 27 44 1
46 28 37 1
@<TRIPOS>SUBSTRUCTURE
1	L011	1	GROUP	1 Y	L01
