# created with PyMOL 2.5.2
@<TRIPOS>MOLECULE
production
45 46 1                 
SMALL
USER_CHARGES
@<TRIPOS>ATOM
1	  C1	-68.719	13.586	21.041	C.3	1	L021	0.000	
2	  C1	-66.408	12.539	21.144	C.3	1	L021	0.000	
3	  O1	-67.573	12.965	20.393	O.3	1	L021	0.000	
4	  C2	-69.403	14.434	19.975	C.3	1	L021	0.000	
5	  C2	-65.414	13.568	20.715	C.3	1	L021	0.000	
6	  O2	-69.352	13.819	18.714	O.3	1	L021	0.000	
7	  O2	-65.752	14.915	20.970	O.3	1	L021	0.000	
8	  C3	-69.197	15.935	19.999	C.3	1	L021	0.000	
9	  C3	-64.721	13.418	19.415	C.3	1	L021	0.000	
10	  O3	-70.074	16.789	19.235	O.3	1	L021	0.000	
11	  O3	-63.473	13.990	19.615	O.3	1	L021	0.000	
12	  C4	-68.845	16.524	21.337	C.3	1	L021	0.000	
13	  C4	-64.631	11.990	18.870	C.3	1	L021	0.000	
14	  O4	-68.106	17.685	21.149	O.3	1	L021	0.000	
15	  O4	-64.723	11.964	17.451	O.3	1	L021	0.000	
16	  C5	-68.243	15.647	22.415	C.3	1	L021	0.000	
17	  C5	-65.541	10.900	19.468	C.3	1	L021	0.000	
18	  O5	-68.286	14.252	22.226	O.3	1	L021	0.000	
19	  O5	-66.270	11.217	20.644	O.3	1	L021	0.000	
20	  C6	-68.994	15.828	23.712	C.3	1	L021	0.000	
21	  C6	-64.705	9.624	19.719	C.3	1	L021	0.000	
22	  O6	-69.607	17.104	23.752	O.3	1	L021	0.000	
23	  O6	-65.302	8.715	20.640	O.3	1	L021	0.000	
24	 H01	-69.471	12.888	21.409	 H	1	L021	0.000	
25	 H02	-66.370	12.490	22.232	 H	1	L021	0.000	
26	 H03	-70.449	14.440	20.283	 H	1	L021	0.000	
27	 H04	-64.647	13.281	21.435	 H	1	L021	0.000	
28	 H05	-70.038	14.185	18.151	 H	1	L021	0.000	
29	 H06	-65.792	15.398	20.141	 H	1	L021	0.000	
30	 H07	-68.294	15.947	19.389	 H	1	L021	0.000	
31	 H08	-65.297	13.911	18.632	 H	1	L021	0.000	
32	 H09	-70.321	16.347	18.419	 H	1	L021	0.000	
33	 H10	-63.166	13.788	20.502	 H	1	L021	0.000	
34	 H11	-69.824	16.714	21.778	 H	1	L021	0.000	
35	 H12	-63.640	11.703	19.222	 H	1	L021	0.000	
36	 H13	-67.950	18.106	21.997	 H	1	L021	0.000	
37	 H14	-65.296	11.243	17.180	 H	1	L021	0.000	
38	 H15	-67.203	15.974	22.400	 H	1	L021	0.000	
39	 H16	-66.315	10.768	18.712	 H	1	L021	0.000	
40	 H17	-68.292	15.746	24.542	 H	1	L021	0.000	
41	 H18	-69.761	15.057	23.795	 H	1	L021	0.000	
42	 H19	-63.761	9.946	20.159	 H	1	L021	0.000	
43	 H20	-64.568	9.110	18.768	 H	1	L021	0.000	
44	 H21	-69.742	17.423	22.857	 H	1	L021	0.000	
45	 H22	-65.363	9.128	21.504	 H	1	L021	0.000	
@<TRIPOS>BOND
1 1 3 1
2 1 4 1
3 1 18 1
4 1 24 1
5 2 3 1
6 2 5 1
7 2 19 1
8 2 25 1
9 4 6 1
10 4 8 1
11 4 26 1
12 5 7 1
13 5 9 1
14 5 27 1
15 6 28 1
16 7 29 1
17 8 10 1
18 8 12 1
19 8 30 1
20 9 11 1
21 9 13 1
22 9 31 1
23 10 32 1
24 11 33 1
25 12 14 1
26 12 16 1
27 12 34 1
28 13 15 1
29 13 17 1
30 13 35 1
31 14 36 1
32 15 37 1
33 16 18 1
34 16 20 1
35 16 38 1
36 17 19 1
37 17 21 1
38 17 39 1
39 20 22 1
40 20 40 1
41 20 41 1
42 21 23 1
43 21 42 1
44 21 43 1
45 22 44 1
46 23 45 1
@<TRIPOS>SUBSTRUCTURE
1	L021	1	GROUP	1 Z	L02
