# created with PyMOL 2.5.2
@<TRIPOS>MOLECULE
production
87 89 1                 
SMALL
USER_CHARGES
@<TRIPOS>ATOM
1	  P1	76.086	1.720	-3.838	P.3	1	L011	0.000	
2	  P2	73.485	3.081	-3.926	P.3	1	L011	0.000	
3	  P3	78.693	-3.405	-5.221	P.3	1	L011	0.000	
4	  C1	71.067	5.973	-3.429	C.3	1	L011	0.000	
5	  N1	64.485	8.306	-1.385	N.pl3	1	L011	0.000	
6	  O1	59.312	9.120	-2.101	O.2	1	L011	0.000	
7	  S1	61.071	9.814	-0.191	S.3	1	L011	0.000	
8	  C2	59.693	9.698	-1.273	C.2	1	L011	0.000	
9	  N2	68.817	6.661	-2.775	N.3	1	L011	0.000	
10	  O2	70.575	4.684	-3.063	O.3	1	L011	0.000	
11	  C3	72.216	6.376	-2.505	C.3	1	L011	0.000	
12	  N3	85.089	0.690	-8.927	N.2	1	L011	0.000	
13	  O3	66.316	9.124	-0.326	O.2	1	L011	0.000	
14	  C4	73.040	7.494	-3.156	C.3	1	L011	0.000	
15	  N4	82.910	-0.318	-9.096	N.2	1	L011	0.000	
16	  O4	70.119	8.175	-3.790	O.3	1	L011	0.000	
17	  C5	71.647	6.873	-1.170	C.3	1	L011	0.000	
18	  N5	85.697	2.343	-7.454	N.pl3	1	L011	0.000	
19	  O5	77.112	2.200	-2.842	O.co2	1	L011	0.000	
20	  C6	58.521	10.907	-0.777	C.3	1	L011	0.000	
21	  N6	82.697	2.087	-6.457	N.2	1	L011	0.000	
22	  O6	75.330	0.516	-3.476	O.co2	1	L011	0.000	
23	  C7	62.123	8.393	-0.546	C.3	1	L011	0.000	
24	  N7	81.350	0.602	-7.476	N.pl3	1	L011	0.000	
25	  O7	79.530	-2.576	-7.256	O.3	1	L011	0.000	
26	  C8	63.571	8.798	-0.353	C.3	1	L011	0.000	
27	  O8	75.024	2.836	-4.297	O.3	1	L011	0.000	
28	  C9	65.815	8.501	-1.262	C.2	1	L011	0.000	
29	  O9	79.092	-1.995	-4.654	O.3	1	L011	0.000	
30	 C10	66.667	7.907	-2.349	C.3	1	L011	0.000	
31	 O10	72.741	2.826	-5.182	O.co2	1	L011	0.000	
32	 C11	68.121	7.731	-2.005	C.3	1	L011	0.000	
33	 O11	78.999	0.406	-7.337	O.3	1	L011	0.000	
34	 C12	69.935	6.984	-3.357	C.3	1	L011	0.000	
35	 O12	73.117	2.368	-2.678	O.co2	1	L011	0.000	
36	 C13	80.191	-0.272	-7.673	C.3	1	L011	0.000	
37	 O13	76.760	1.364	-5.215	O.3	1	L011	0.000	
38	 C14	84.180	-0.151	-9.443	C.2	1	L011	0.000	
39	 O14	73.411	4.603	-3.537	O.3	1	L011	0.000	
40	 C15	80.259	-1.463	-6.734	C.3	1	L011	0.000	
41	 O15	77.388	-3.859	-4.634	O.co2	1	L011	0.000	
42	 C16	79.612	-0.925	-5.485	C.3	1	L011	0.000	
43	 O16	78.763	-3.255	-6.702	O.co2	1	L011	0.000	
44	 C17	82.572	0.490	-8.089	C.2	1	L011	0.000	
45	 O17	79.809	-4.393	-4.694	O.co2	1	L011	0.000	
46	 C18	78.484	-0.073	-6.066	C.3	1	L011	0.000	
47	 C19	83.400	1.420	-7.447	C.2	1	L011	0.000	
48	 C20	78.174	1.059	-5.171	C.3	1	L011	0.000	
49	 C21	84.705	1.490	-7.926	C.2	1	L011	0.000	
50	 C22	81.505	1.559	-6.521	C.2	1	L011	0.000	
51	 C23	73.091	5.192	-2.255	C.3	1	L011	0.000	
52	  H1	71.437	5.947	-4.433	 H	1	L011	0.000	
53	  H2	69.904	4.406	-3.692	 H	1	L011	0.000	
54	  H3	73.922	7.671	-2.576	 H	1	L011	0.000	
55	  H4	72.456	8.389	-3.198	 H	1	L011	0.000	
56	  H5	73.317	7.201	-4.147	 H	1	L011	0.000	
57	  H6	71.020	7.721	-1.344	 H	1	L011	0.000	
58	  H7	72.451	7.151	-0.521	 H	1	L011	0.000	
59	  H8	71.074	6.093	-0.715	 H	1	L011	0.000	
60	  H9	58.371	11.607	-1.573	 H	1	L011	0.000	
61	 H10	58.884	11.423	0.087	 H	1	L011	0.000	
62	 H11	57.592	10.429	-0.544	 H	1	L011	0.000	
63	 H12	61.970	8.075	-1.556	 H	1	L011	0.000	
64	 H13	61.883	7.592	0.122	 H	1	L011	0.000	
65	 H14	63.901	8.420	0.591	 H	1	L011	0.000	
66	 H15	63.620	9.867	-0.348	 H	1	L011	0.000	
67	 H16	64.131	7.833	-2.168	 H	1	L011	0.000	
68	 H17	66.605	8.547	-3.204	 H	1	L011	0.000	
69	 H18	66.267	6.945	-2.593	 H	1	L011	0.000	
70	 H19	68.190	7.492	-0.964	 H	1	L011	0.000	
71	 H20	68.622	8.657	-2.193	 H	1	L011	0.000	
72	 H21	68.202	6.349	-3.470	 H	1	L011	0.000	
73	 H22	69.562	6.667	-4.308	 H	1	L011	0.000	
74	 H23	70.152	8.165	-4.750	 H	1	L011	0.000	
75	 H24	80.161	-0.600	-8.691	 H	1	L011	0.000	
76	 H25	84.515	-0.753	-10.222	 H	1	L011	0.000	
77	 H26	81.273	-1.754	-6.550	 H	1	L011	0.000	
78	 H27	79.861	-3.388	-6.866	 H	1	L011	0.000	
79	 H28	80.296	-0.331	-4.915	 H	1	L011	0.000	
80	 H29	77.604	-0.663	-6.214	 H	1	L011	0.000	
81	 H30	78.730	1.918	-5.484	 H	1	L011	0.000	
82	 H31	78.448	0.802	-4.169	 H	1	L011	0.000	
83	 H32	85.501	2.963	-6.720	 H	1	L011	0.000	
84	 H33	86.592	2.323	-7.853	 H	1	L011	0.000	
85	 H34	80.731	1.849	-5.889	 H	1	L011	0.000	
86	 H35	72.575	4.479	-1.646	 H	1	L011	0.000	
87	 H36	73.989	5.500	-1.762	 H	1	L011	0.000	
@<TRIPOS>BOND
1 1 19 1
2 1 22 2
3 1 27 1
4 1 37 1
5 2 27 1
6 2 31 1
7 2 35 2
8 2 39 1
9 3 29 1
10 3 41 1
11 3 43 1
12 3 45 2
13 4 10 1
14 4 11 1
15 4 34 1
16 4 52 1
17 5 26 1
18 5 28 1
19 5 67 1
20 6 8 2
21 7 8 1
22 7 23 1
23 8 20 1
24 9 32 1
25 9 34 1
26 9 72 1
27 10 53 1
28 11 14 1
29 11 17 1
30 11 51 1
31 12 38 ar
32 12 49 ar
33 13 28 2
34 14 54 1
35 14 55 1
36 14 56 1
37 15 38 ar
38 15 44 ar
39 16 34 1
40 16 74 1
41 17 57 1
42 17 58 1
43 17 59 1
44 18 49 1
45 18 83 1
46 18 84 1
47 20 60 1
48 20 61 1
49 20 62 1
50 21 47 ar
51 21 50 ar
52 23 26 1
53 23 63 1
54 23 64 1
55 24 36 1
56 24 44 ar
57 24 50 ar
58 25 40 1
59 25 78 1
60 26 65 1
61 26 66 1
62 28 30 1
63 29 42 1
64 30 32 1
65 30 68 1
66 30 69 1
67 32 70 1
68 32 71 1
69 33 36 1
70 33 46 1
71 34 73 1
72 36 40 1
73 36 75 1
74 37 48 1
75 38 76 1
76 39 51 1
77 40 42 1
78 40 77 1
79 42 46 1
80 42 79 1
81 44 47 ar
82 46 48 1
83 46 80 1
84 47 49 ar
85 48 81 1
86 48 82 1
87 50 85 1
88 51 86 1
89 51 87 1
@<TRIPOS>SUBSTRUCTURE
1	L011	1	GROUP	1 Y	L01
