# created with PyMOL 2.5.2
@<TRIPOS>MOLECULE
fixed_
89 91 1                 
SMALL
USER_CHARGES
@<TRIPOS>ATOM
1	 CAP	71.100	6.588	-1.610	C.3	1	L011	0.000	
2	   C	59.327	9.929	-0.923	C.2	1	L011	0.000	
3	   O	59.164	9.056	-1.749	O.2	1	L011	0.000	
4	 OAP	72.050	6.801	-0.563	O.3	1	L011	0.000	
5	 CBP	71.834	6.193	-2.893	C.3	1	L011	0.000	
6	 CDP	70.811	5.845	-3.977	C.3	1	L011	0.000	
7	 CEP	72.699	7.362	-3.365	C.3	1	L011	0.000	
8	 CH3	58.171	10.802	-0.511	C.3	1	L011	0.000	
9	 P1A	76.006	1.585	-4.344	P.3	1	L011	0.000	
10	 P2A	74.317	3.331	-3.459	P.3	1	L011	0.000	
11	 P3B	78.465	-4.114	-5.534	P.3	1	L011	0.000	
12	 S1P	60.873	10.170	-0.227	S.3	1	L011	0.000	
13	 C2P	61.808	8.877	-1.083	C.3	1	L011	0.000	
14	 C3P	63.262	8.901	-0.607	C.3	1	L011	0.000	
15	 N4P	64.188	7.965	-1.260	N.pl3	1	L011	0.000	
16	 C5P	65.389	8.553	-1.107	C.2	1	L011	0.000	
17	 O5P	65.486	9.577	-0.463	O.2	1	L011	0.000	
18	 C6P	66.614	7.940	-1.734	C.3	1	L011	0.000	
19	 C7P	67.839	8.798	-1.410	C.3	1	L011	0.000	
20	 N8P	69.030	8.203	-2.019	N.3	1	L011	0.000	
21	 C9P	70.321	7.856	-1.846	C.3	1	L011	0.000	
22	 O9P	70.713	8.904	-1.381	O.3	1	L011	0.000	
23	 C1B	80.534	-0.309	-7.238	C.3	1	L011	0.000	
24	 N1A	85.133	0.854	-9.354	N.2	1	L011	0.000	
25	 O1A	76.942	1.976	-3.266	O.co2	1	L011	0.000	
26	 C2A	84.320	-0.145	-9.645	C.2	1	L011	0.000	
27	 C2B	80.720	-1.416	-6.168	C.3	1	L011	0.000	
28	 O2A	75.037	0.412	-3.816	O.3	1	L011	0.000	
29	 O2B	81.460	-2.518	-6.697	O.3	1	L011	0.000	
30	 C3B	79.254	-1.828	-5.870	C.3	1	L011	0.000	
31	 N3A	83.173	-0.325	-9.024	N.2	1	L011	0.000	
32	 O3A	75.120	2.860	-4.773	O.3	1	L011	0.000	
33	 O3B	78.905	-2.999	-6.610	O.3	1	L011	0.000	
34	 C4A	82.786	0.504	-8.060	C.2	1	L011	0.000	
35	 C4B	78.423	-0.617	-6.340	C.3	1	L011	0.000	
36	 O4A	73.452	2.226	-2.988	O.co2	1	L011	0.000	
37	 O4B	79.344	0.382	-6.805	O.3	1	L011	0.000	
38	 C5A	83.614	1.585	-7.717	C.2	1	L011	0.000	
39	 C5B	77.602	-0.066	-5.173	C.3	1	L011	0.000	
40	 O5A	75.363	3.726	-2.301	O.3	1	L011	0.000	
41	 O5B	76.841	1.059	-5.615	O.3	1	L011	0.000	
42	 C6A	84.829	1.735	-8.407	C.2	1	L011	0.000	
43	 N6A	85.689	2.778	-8.110	N.pl3	1	L011	0.000	
44	 O6A	73.406	4.608	-3.819	O.3	1	L011	0.000	
45	 N7A	82.992	2.267	-6.727	N.2	1	L011	0.000	
46	 O7A	77.309	-3.619	-4.755	O.co2	1	L011	0.000	
47	 C8A	81.858	1.689	-6.450	C.2	1	L011	0.000	
48	 O8A	78.056	-5.469	-6.302	O.3	1	L011	0.000	
49	 N9A	81.684	0.599	-7.248	N.2	1	L011	0.000	
50	 O9A	79.696	-4.413	-4.539	O.3	1	L011	0.000	
51	 CCP	72.721	4.978	-2.620	C.3	1	L011	0.000	
52	 HN4	64.110	7.147	-1.775	 H	1	L011	0.000	
53	 HN8	68.378	7.532	-2.280	 H	1	L011	0.000	
54	HH31	57.277	10.501	-1.057	 H	1	L011	0.000	
55	HH32	57.998	10.693	0.560	 H	1	L011	0.000	
56	HH33	58.403	11.842	-0.736	 H	1	L011	0.000	
57	 HO1	72.635	7.512	-0.859	 H	1	L011	0.000	
58	HO2A	82.329	-2.175	-6.947	 H	1	L011	0.000	
59	HOA2	74.445	0.189	-4.545	 H	1	L011	0.000	
60	HOA5	75.905	4.447	-2.649	 H	1	L011	0.000	
61	HOA8	77.801	-6.109	-5.623	 H	1	L011	0.000	
62	HOA9	80.426	-4.732	-5.086	 H	1	L011	0.000	
63	 H10	70.416	5.789	-1.322	 H	1	L011	0.000	
64	 H21	61.370	7.905	-0.861	 H	1	L011	0.000	
65	 H22	61.775	9.054	-2.157	 H	1	L011	0.000	
66	 H1B	80.386	-0.750	-8.222	 H	1	L011	0.000	
67	 H31	63.702	9.873	-0.829	 H	1	L011	0.000	
68	 H32	63.128	8.613	0.430	 H	1	L011	0.000	
69	 H2A	84.606	-0.839	-10.421	 H	1	L011	0.000	
70	 H2B	81.202	-1.018	-5.276	 H	1	L011	0.000	
71	 H3B	79.113	-1.995	-4.804	 H	1	L011	0.000	
72	 H4B	77.760	-0.916	-7.152	 H	1	L011	0.000	
73	 H61	66.761	6.935	-1.339	 H	1	L011	0.000	
74	 H62	66.484	7.889	-2.814	 H	1	L011	0.000	
75	 H71	67.694	9.802	-1.806	 H	1	L011	0.000	
76	 H72	67.970	8.849	-0.329	 H	1	L011	0.000	
77	 H8A	81.159	2.023	-5.699	 H	1	L011	0.000	
78	H121	73.449	5.226	-1.847	 H	1	L011	0.000	
79	H122	72.104	4.145	-2.284	 H	1	L011	0.000	
80	H131	70.111	5.104	-3.592	 H	1	L011	0.000	
81	H132	70.266	6.743	-4.265	 H	1	L011	0.000	
82	H133	71.328	5.439	-4.846	 H	1	L011	0.000	
83	H141	73.427	7.610	-2.592	 H	1	L011	0.000	
84	H142	73.222	7.079	-4.279	 H	1	L011	0.000	
85	H143	72.066	8.227	-3.560	 H	1	L011	0.000	
86	H51A	78.271	0.241	-4.370	 H	1	L011	0.000	
87	H52A	76.927	-0.840	-4.805	 H	1	L011	0.000	
88	H61A	86.525	2.871	-8.593	 H	1	L011	0.000	
89	H62A	85.456	3.415	-7.417	 H	1	L011	0.000	
@<TRIPOS>BOND
1 1 4 1
2 1 5 1
3 1 21 1
4 1 63 1
5 2 3 2
6 2 8 1
7 2 12 1
8 4 57 1
9 5 6 1
10 5 7 1
11 5 51 1
12 6 80 1
13 6 81 1
14 6 82 1
15 7 83 1
16 7 84 1
17 7 85 1
18 8 54 1
19 8 55 1
20 8 56 1
21 9 25 1
22 9 28 1
23 9 32 1
24 9 41 1
25 10 32 1
26 10 36 1
27 10 40 1
28 10 44 1
29 11 33 1
30 11 46 1
31 11 48 1
32 11 50 1
33 12 13 1
34 13 14 1
35 13 64 1
36 13 65 1
37 14 15 1
38 14 67 1
39 14 68 1
40 15 16 1
41 15 52 1
42 16 17 2
43 16 18 1
44 18 19 1
45 18 73 1
46 18 74 1
47 19 20 1
48 19 75 1
49 19 76 1
50 20 21 1
51 20 53 1
52 21 22 1
53 23 27 1
54 23 37 1
55 23 49 1
56 23 66 1
57 24 26 ar
58 24 42 ar
59 26 31 ar
60 26 69 1
61 27 29 1
62 27 30 1
63 27 70 1
64 28 59 1
65 29 58 1
66 30 33 1
67 30 35 1
68 30 71 1
69 31 34 ar
70 34 38 ar
71 34 49 ar
72 35 37 1
73 35 39 1
74 35 72 1
75 38 42 ar
76 38 45 ar
77 39 41 1
78 39 86 1
79 39 87 1
80 40 60 1
81 42 43 1
82 43 88 1
83 43 89 1
84 44 51 1
85 45 47 ar
86 47 49 ar
87 47 77 1
88 48 61 1
89 50 62 1
90 51 78 1
91 51 79 1
@<TRIPOS>SUBSTRUCTURE
1	L011	1	GROUP	1 Y	L01
