# created with PyMOL 2.5.2
@<TRIPOS>MOLECULE
fixed_
26 25 1                 
SMALL
USER_CHARGES
@<TRIPOS>ATOM
1	  C1	59.926	19.551	-0.137	C.2	1	L021	0.000	
2	 O1A	60.084	19.497	1.060	O.co2	1	L021	0.000	
3	 O1B	59.763	20.739	-0.740	O.co2	1	L021	0.000	
4	  C2	59.911	18.284	-0.952	C.3	1	L021	0.000	
5	  C3	60.116	17.081	-0.030	C.3	1	L021	0.000	
6	  O3	59.005	16.970	0.863	O.3	1	L021	0.000	
7	  C4	60.226	15.808	-0.868	C.3	1	L021	0.000	
8	 C5A	59.524	14.448	0.980	C.3	1	L021	0.000	
9	 C5B	61.845	14.989	0.702	C.3	1	L021	0.000	
10	 C5C	60.776	13.472	-0.819	C.3	1	L021	0.000	
11	  N5	60.592	14.680	-0.001	N.4	1	L021	0.000	
12	 HO3	58.218	16.851	0.314	 H	1	L021	0.000	
13	  H3	61.031	17.217	0.548	 H	1	L021	0.000	
14	 H21	60.713	18.317	-1.689	 H	1	L021	0.000	
15	 H22	58.953	18.191	-1.462	 H	1	L021	0.000	
16	 H41	60.990	15.940	-1.634	 H	1	L021	0.000	
17	 H42	59.267	15.603	-1.345	 H	1	L021	0.000	
18	H5A1	59.512	15.263	1.703	 H	1	L021	0.000	
19	H5A2	58.563	14.404	0.467	 H	1	L021	0.000	
20	H5A3	59.702	13.506	1.497	 H	1	L021	0.000	
21	H5B1	62.116	14.152	1.345	 H	1	L021	0.000	
22	H5B2	62.637	15.160	-0.027	 H	1	L021	0.000	
23	H5B3	61.709	15.884	1.309	 H	1	L021	0.000	
24	H5C1	59.846	13.243	-1.341	 H	1	L021	0.000	
25	H5C2	61.569	13.644	-1.546	 H	1	L021	0.000	
26	H5C3	61.047	12.635	-0.175	 H	1	L021	0.000	
@<TRIPOS>BOND
1 1 2 ar
2 1 3 ar
3 1 4 1
4 4 5 1
5 4 14 1
6 4 15 1
7 5 6 1
8 5 7 1
9 5 13 1
10 6 12 1
11 7 11 1
12 7 16 1
13 7 17 1
14 8 11 1
15 8 18 1
16 8 19 1
17 8 20 1
18 9 11 1
19 9 21 1
20 9 22 1
21 9 23 1
22 10 11 1
23 10 24 1
24 10 25 1
25 10 26 1
@<TRIPOS>SUBSTRUCTURE
1	L021	1	GROUP	1 Z	L02
