# Title Card Required
# Created by GaussView 6.0.16
#

#
#

@<TRIPOS>MOLECULE
Molecule Name
17 15
SMALL
NO_CHARGES


@<TRIPOS>ATOM
1 S1     3.4522    -0.0566    -0.5471 S
2 C2     3.4799     0.8234     1.0265 C
3 H3     3.7344     1.8717     0.8132 H
4 H4     2.4963     0.7919     1.5201 H
5 H5     4.2420     0.4060     1.7024 H
6 C6     3.0102    -1.7051     0.0340 C
7 H7     2.9414    -2.3573    -0.8486 H
8 H8     3.7791    -2.1079     0.7112 H
9 H9     2.0361    -1.7012     0.5465 H
10 C10    -0.0793     0.3755    -0.1848 C
11 H11     0.2705    -0.2273    -1.0308 H
12 C12     0.0894     1.8533    -0.4062 C
13 H13    -0.4419     2.1975    -1.3057 H
14 H14    -0.2602     2.4417     0.4546 H
15 H15     1.1639     2.0566    -0.5494 H
16 I16    -2.1622    -0.1994     0.0601 I
17 H17     0.4001     0.0225     0.7359 H
@<TRIPOS>BOND
1 1 2 1
2 1 6 1
3 2 3 1
4 2 4 1
5 2 5 1
6 6 7 1
7 6 8 1
8 6 9 1
9 10 11 1
10 10 12 1
11 10 16 1
12 10 17 1
13 12 13 1
14 12 14 1
15 12 15 1
