# created with PyMOL 2.5.2
@<TRIPOS>MOLECULE
L02_0001
230 236 1               
SMALL
USER_CHARGES
@<TRIPOS>ATOM
1	  P1	139.554	48.676	33.815	P.3	1	L021	0.000	
2	  P2	142.312	48.942	34.593	P.3	1	L021	0.000	
3	  C1	142.889	42.910	42.515	C.3	1	L021	0.000	
4	  N1	144.876	47.316	36.806	N.pl3	1	L021	0.000	
5	  O1	141.613	42.473	42.886	O.3	1	L021	0.000	
6	  C2	142.788	44.439	42.381	C.3	1	L021	0.000	
7	  O2	144.043	45.063	42.652	O.3	1	L021	0.000	
8	  C3	141.757	44.795	43.438	C.3	1	L021	0.000	
9	  O3	141.018	45.960	43.062	O.3	1	L021	0.000	
10	  C4	141.353	42.138	44.265	C.3	1	L021	0.000	
11	  O4	141.443	41.011	45.126	O.3	1	L021	0.000	
12	  C5	140.468	43.201	44.902	C.3	1	L021	0.000	
13	  O5	139.134	42.708	44.855	O.3	1	L021	0.000	
14	  C6	140.848	43.543	43.467	C.3	1	L021	0.000	
15	  O6	139.209	41.620	46.935	O.3	1	L021	0.000	
16	  C7	139.764	41.702	45.588	C.3	1	L021	0.000	
17	  O7	139.348	40.435	43.565	O.3	1	L021	0.000	
18	  C8	139.482	40.345	44.984	C.3	1	L021	0.000	
19	  O8	137.044	40.387	44.869	O.3	1	L021	0.000	
20	  C9	138.156	39.931	45.635	C.3	1	L021	0.000	
21	  O9	137.348	37.945	47.931	O.3	1	L021	0.000	
22	 C10	137.251	39.107	48.741	C.3	1	L021	0.000	
23	 O10	135.865	40.218	47.126	O.3	1	L021	0.000	
24	 C11	137.044	40.374	47.921	C.3	1	L021	0.000	
25	 O11	143.270	42.329	41.273	O.3	1	L021	0.000	
26	 C12	138.214	40.637	46.999	C.3	1	L021	0.000	
27	 O12	140.238	47.935	32.572	O.3	1	L021	0.000	
28	 C13	140.441	49.248	32.028	C.3	1	L021	0.000	
29	 O13	140.736	48.685	34.920	O.3	1	L021	0.000	
30	 C14	141.471	49.247	30.937	C.2	1	L021	0.000	
31	 O14	138.433	47.835	34.336	O.2	1	L021	0.000	
32	 C15	141.390	49.860	29.760	C.2	1	L021	0.000	
33	 O15	139.320	50.080	33.419	O.2	1	L021	0.000	
34	 C16	142.567	50.085	28.856	C.3	1	L021	0.000	
35	 O16	142.819	49.170	36.066	O.3	1	L021	0.000	
36	 C17	140.086	50.384	29.235	C.3	1	L021	0.000	
37	 O17	142.444	50.189	33.784	O.co2	1	L021	0.000	
38	 C18	139.775	51.794	29.710	C.3	1	L021	0.000	
39	 O18	142.910	47.671	34.114	O.co2	1	L021	0.000	
40	 C19	138.529	52.449	29.178	C.2	1	L021	0.000	
41	 O19	144.396	44.364	39.965	O.3	1	L021	0.000	
42	 C20	137.494	52.902	29.887	C.2	1	L021	0.000	
43	 O20	143.351	45.649	38.381	O.3	1	L021	0.000	
44	 C21	136.185	53.231	29.228	C.3	1	L021	0.000	
45	 O21	144.578	42.263	38.022	O.3	1	L021	0.000	
46	 C22	137.596	53.103	31.370	C.3	1	L021	0.000	
47	 O22	141.347	43.884	38.370	O.3	1	L021	0.000	
48	 C23	137.659	54.552	31.829	C.3	1	L021	0.000	
49	 O23	141.650	48.665	37.991	O.3	1	L021	0.000	
50	 C24	137.453	54.770	33.293	C.2	1	L021	0.000	
51	 O24	143.036	48.587	40.505	O.3	1	L021	0.000	
52	 C25	138.330	55.360	34.107	C.2	1	L021	0.000	
53	 O25	139.543	46.739	37.858	O.3	1	L021	0.000	
54	 C26	139.730	55.650	33.636	C.3	1	L021	0.000	
55	 O26	146.244	49.095	36.796	O.2	1	L021	0.000	
56	 C27	137.986	55.657	35.515	C.3	1	L021	0.000	
57	 C28	140.005	57.135	33.465	C.3	1	L021	0.000	
58	 C29	139.175	57.828	32.417	C.2	1	L021	0.000	
59	 C30	138.471	58.936	32.619	C.2	1	L021	0.000	
60	 C31	138.259	59.487	34.000	C.3	1	L021	0.000	
61	 C32	137.832	59.732	31.519	C.3	1	L021	0.000	
62	 C33	136.782	59.735	34.260	C.3	1	L021	0.000	
63	 C34	136.587	60.511	35.534	C.2	1	L021	0.000	
64	 C35	136.007	61.703	35.615	C.2	1	L021	0.000	
65	 C36	135.752	62.588	34.430	C.3	1	L021	0.000	
66	 C37	135.553	62.268	36.931	C.3	1	L021	0.000	
67	 C38	136.449	63.935	34.532	C.3	1	L021	0.000	
68	 C39	136.244	64.853	33.368	C.2	1	L021	0.000	
69	 C40	137.161	65.244	32.479	C.2	1	L021	0.000	
70	 C41	138.630	65.049	32.737	C.3	1	L021	0.000	
71	 C42	136.734	65.805	31.137	C.3	1	L021	0.000	
72	 C43	139.266	63.867	32.023	C.3	1	L021	0.000	
73	 C44	140.679	63.567	32.412	C.2	1	L021	0.000	
74	 C45	141.766	63.740	31.672	C.2	1	L021	0.000	
75	 C46	141.675	64.194	30.243	C.3	1	L021	0.000	
76	 C47	143.165	63.503	32.167	C.3	1	L021	0.000	
77	 C48	142.028	63.103	29.246	C.3	1	L021	0.000	
78	 C49	142.488	61.811	29.846	C.2	1	L021	0.000	
79	 C50	143.372	61.006	29.307	C.2	1	L021	0.000	
80	 C51	144.286	61.399	28.182	C.3	1	L021	0.000	
81	 C52	143.594	59.628	29.857	C.3	1	L021	0.000	
82	 C53	144.086	60.558	26.932	C.3	1	L021	0.000	
83	 C54	145.023	60.932	25.815	C.2	1	L021	0.000	
84	 C55	144.998	60.483	24.558	C.2	1	L021	0.000	
85	 C56	145.772	61.172	23.469	C.3	1	L021	0.000	
86	 C57	144.195	59.272	24.183	C.3	1	L021	0.000	
87	 C58	147.110	60.541	23.121	C.3	1	L021	0.000	
88	 C59	147.883	61.327	22.096	C.2	1	L021	0.000	
89	 C60	149.070	61.850	22.291	C.2	1	L021	0.000	
90	 C61	149.709	62.712	21.242	C.3	1	L021	0.000	
91	 C62	149.922	61.569	23.505	C.3	1	L021	0.000	
92	 C63	144.222	44.555	38.588	C.3	1	L021	0.000	
93	 C64	143.635	43.334	37.945	C.3	1	L021	0.000	
94	 C65	142.355	42.925	38.654	C.3	1	L021	0.000	
95	 C66	143.163	44.137	40.654	C.3	1	L021	0.000	
96	 C67	142.546	42.843	40.150	C.3	1	L021	0.000	
97	 C68	143.428	44.024	42.148	C.3	1	L021	0.000	
98	 C69	142.614	48.190	37.061	C.3	1	L021	0.000	
99	 C70	143.939	47.902	37.762	C.3	1	L021	0.000	
100	 C71	143.712	46.926	38.915	C.3	1	L021	0.000	
101	 C72	141.345	47.718	39.027	C.3	1	L021	0.000	
102	 C73	142.607	47.407	39.833	C.3	1	L021	0.000	
103	 C74	140.826	46.452	38.407	C.3	1	L021	0.000	
104	 C75	145.985	47.964	36.393	C.2	1	L021	0.000	
105	 C76	146.902	47.255	35.416	C.3	1	L021	0.000	
106	  H1	143.605	42.650	43.265	 H	1	L021	0.000	
107	  H2	142.453	44.719	41.404	 H	1	L021	0.000	
108	  H3	144.025	45.448	43.532	 H	1	L021	0.000	
109	  H4	142.221	44.958	44.388	 H	1	L021	0.000	
110	  H5	140.217	45.696	42.604	 H	1	L021	0.000	
111	  H6	140.929	41.838	43.329	 H	1	L021	0.000	
112	  H7	142.331	42.540	44.102	 H	1	L021	0.000	
113	  H8	141.543	40.214	44.601	 H	1	L021	0.000	
114	  H9	140.769	43.313	45.924	 H	1	L021	0.000	
115	 H10	139.960	43.716	42.895	 H	1	L021	0.000	
116	 H11	140.817	41.891	45.622	 H	1	L021	0.000	
117	 H12	140.260	39.650	45.226	 H	1	L021	0.000	
118	 H13	140.061	39.949	43.144	 H	1	L021	0.000	
119	 H14	138.098	38.869	45.753	 H	1	L021	0.000	
120	 H15	136.804	39.717	44.224	 H	1	L021	0.000	
121	 H16	138.156	39.207	49.305	 H	1	L021	0.000	
122	 H17	136.426	38.991	49.410	 H	1	L021	0.000	
123	 H18	137.733	37.229	48.441	 H	1	L021	0.000	
124	 H19	136.932	41.203	48.587	 H	1	L021	0.000	
125	 H20	135.468	41.078	46.970	 H	1	L021	0.000	
126	 H21	137.269	41.091	47.215	 H	1	L021	0.000	
127	 H22	140.769	49.899	32.812	 H	1	L021	0.000	
128	 H23	139.514	49.605	31.630	 H	1	L021	0.000	
129	 H24	142.341	48.710	31.120	 H	1	L021	0.000	
130	 H25	142.493	49.441	28.005	 H	1	L021	0.000	
131	 H26	143.470	49.872	29.387	 H	1	L021	0.000	
132	 H27	142.576	51.105	28.531	 H	1	L021	0.000	
133	 H28	139.301	49.733	29.563	 H	1	L021	0.000	
134	 H29	140.125	50.385	28.166	 H	1	L021	0.000	
135	 H30	140.604	52.412	29.438	 H	1	L021	0.000	
136	 H31	139.690	51.760	30.777	 H	1	L021	0.000	
137	 H32	138.469	52.561	28.146	 H	1	L021	0.000	
138	 H33	136.237	52.984	28.189	 H	1	L021	0.000	
139	 H34	135.984	54.276	29.337	 H	1	L021	0.000	
140	 H35	135.403	52.666	29.690	 H	1	L021	0.000	
141	 H36	138.483	52.611	31.710	 H	1	L021	0.000	
142	 H37	136.740	52.651	31.824	 H	1	L021	0.000	
143	 H38	136.903	55.098	31.305	 H	1	L021	0.000	
144	 H39	138.623	54.938	31.570	 H	1	L021	0.000	
145	 H40	136.561	54.436	33.709	 H	1	L021	0.000	
146	 H41	139.879	55.165	32.694	 H	1	L021	0.000	
147	 H42	140.419	55.256	34.354	 H	1	L021	0.000	
148	 H43	137.036	55.224	35.749	 H	1	L021	0.000	
149	 H44	137.939	56.717	35.654	 H	1	L021	0.000	
150	 H45	138.734	55.244	36.159	 H	1	L021	0.000	
151	 H46	141.035	57.251	33.199	 H	1	L021	0.000	
152	 H47	139.822	57.615	34.403	 H	1	L021	0.000	
153	 H48	139.151	57.408	31.467	 H	1	L021	0.000	
154	 H49	138.791	60.410	34.095	 H	1	L021	0.000	
155	 H50	138.628	58.786	34.718	 H	1	L021	0.000	
156	 H51	138.442	60.580	31.289	 H	1	L021	0.000	
157	 H52	136.865	60.065	31.836	 H	1	L021	0.000	
158	 H53	137.730	59.119	30.648	 H	1	L021	0.000	
159	 H54	136.277	58.795	34.341	 H	1	L021	0.000	
160	 H55	136.370	60.292	33.443	 H	1	L021	0.000	
161	 H56	136.932	60.083	36.416	 H	1	L021	0.000	
162	 H57	134.698	62.757	34.351	 H	1	L021	0.000	
163	 H58	136.101	62.090	33.551	 H	1	L021	0.000	
164	 H59	136.002	63.228	37.082	 H	1	L021	0.000	
165	 H60	135.846	61.610	37.722	 H	1	L021	0.000	
166	 H61	134.487	62.370	36.928	 H	1	L021	0.000	
167	 H62	137.500	63.756	34.628	 H	1	L021	0.000	
168	 H63	136.089	64.429	35.409	 H	1	L021	0.000	
169	 H64	135.283	65.228	33.238	 H	1	L021	0.000	
170	 H65	138.764	64.910	33.790	 H	1	L021	0.000	
171	 H66	139.140	65.937	32.425	 H	1	L021	0.000	
172	 H67	137.069	65.155	30.356	 H	1	L021	0.000	
173	 H68	137.164	66.775	31.004	 H	1	L021	0.000	
174	 H69	135.667	65.880	31.106	 H	1	L021	0.000	
175	 H70	139.250	64.069	30.972	 H	1	L021	0.000	
176	 H71	138.675	62.999	32.230	 H	1	L021	0.000	
177	 H72	140.824	63.184	33.368	 H	1	L021	0.000	
178	 H73	142.348	65.015	30.104	 H	1	L021	0.000	
179	 H74	140.673	64.518	30.053	 H	1	L021	0.000	
180	 H75	143.729	64.410	32.093	 H	1	L021	0.000	
181	 H76	143.631	62.745	31.574	 H	1	L021	0.000	
182	 H77	143.132	63.187	33.189	 H	1	L021	0.000	
183	 H78	142.813	63.472	28.618	 H	1	L021	0.000	
184	 H79	141.160	62.902	28.655	 H	1	L021	0.000	
185	 H80	142.075	61.531	30.759	 H	1	L021	0.000	
186	 H81	145.297	61.288	28.510	 H	1	L021	0.000	
187	 H82	144.101	62.424	27.937	 H	1	L021	0.000	
188	 H83	144.320	59.670	30.642	 H	1	L021	0.000	
189	 H84	143.949	58.987	29.077	 H	1	L021	0.000	
190	 H85	142.673	59.246	30.244	 H	1	L021	0.000	
191	 H86	143.081	60.689	26.590	 H	1	L021	0.000	
192	 H87	144.247	59.531	27.183	 H	1	L021	0.000	
193	 H88	145.774	61.613	26.048	 H	1	L021	0.000	
194	 H89	145.952	62.181	23.779	 H	1	L021	0.000	
195	 H90	145.167	61.174	22.586	 H	1	L021	0.000	
196	 H91	144.907	58.554	23.834	 H	1	L021	0.000	
197	 H92	143.496	59.512	23.409	 H	1	L021	0.000	
198	 H93	143.668	58.894	25.033	 H	1	L021	0.000	
199	 H94	146.934	59.559	22.735	 H	1	L021	0.000	
200	 H95	147.697	60.475	24.014	 H	1	L021	0.000	
201	 H96	147.444	61.465	21.163	 H	1	L021	0.000	
202	 H97	150.158	63.567	21.706	 H	1	L021	0.000	
203	 H98	148.965	63.036	20.544	 H	1	L021	0.000	
204	 H99	150.460	62.150	20.728	 H	1	L021	0.000	
205	H100	149.932	62.458	24.100	 H	1	L021	0.000	
206	H101	150.918	61.319	23.204	 H	1	L021	0.000	
207	H102	149.503	60.759	24.065	 H	1	L021	0.000	
208	H103	145.171	44.764	38.142	 H	1	L021	0.000	
209	H104	143.419	43.546	36.919	 H	1	L021	0.000	
210	H105	142.048	41.966	38.291	 H	1	L021	0.000	
211	H106	142.493	44.950	40.471	 H	1	L021	0.000	
212	H107	141.808	43.541	40.488	 H	1	L021	0.000	
213	H108	144.686	41.994	38.937	 H	1	L021	0.000	
214	H109	140.646	43.471	37.861	 H	1	L021	0.000	
215	H110	142.499	43.926	42.669	 H	1	L021	0.000	
216	H111	143.935	44.905	42.487	 H	1	L021	0.000	
217	H112	144.037	43.166	42.339	 H	1	L021	0.000	
218	H113	142.253	47.291	36.608	 H	1	L021	0.000	
219	H114	144.344	48.816	38.145	 H	1	L021	0.000	
220	H115	144.617	46.834	39.478	 H	1	L021	0.000	
221	H116	140.600	48.129	39.676	 H	1	L021	0.000	
222	H117	142.389	46.646	40.552	 H	1	L021	0.000	
223	H118	144.693	46.420	36.454	 H	1	L021	0.000	
224	H119	142.805	48.472	41.430	 H	1	L021	0.000	
225	H120	140.742	45.688	39.151	 H	1	L021	0.000	
226	H121	141.489	46.126	37.633	 H	1	L021	0.000	
227	H122	139.311	46.031	37.253	 H	1	L021	0.000	
228	H123	147.520	46.635	36.032	 H	1	L021	0.000	
229	H124	147.496	47.963	34.874	 H	1	L021	0.000	
230	H125	146.336	46.663	34.727	 H	1	L021	0.000	
@<TRIPOS>BOND
1 3 5 1
2 3 6 1
3 3 25 1
4 3 106 1
5 4 99 1
6 4 104 1
7 4 223 1
8 6 7 1
9 6 8 1
10 6 107 1
11 6 216 1
12 7 108 1
13 7 216 1
14 8 9 1
15 8 14 1
16 8 109 1
17 9 110 1
18 10 11 1
19 10 12 1
20 10 111 1
21 10 112 1
22 11 113 1
23 12 13 1
24 12 14 1
25 12 114 1
26 5 14 1
27 14 115 1
28 13 16 1
29 15 16 1
30 16 18 1
31 16 116 1
32 17 118 1
33 17 18 1
34 18 20 1
35 18 117 1
36 19 120 1
37 19 20 1
38 20 26 1
39 20 119 1
40 21 123 1
41 21 22 1
42 22 24 1
43 22 121 1
44 22 122 1
45 23 125 1
46 23 24 1
47 24 26 1
48 24 124 1
49 15 26 1
50 26 126 1
51 1 27 1
52 1 28 1
53 27 28 1
54 28 30 1
55 28 127 1
56 28 128 1
57 1 29 1
58 2 29 1
59 30 129 1
60 1 31 2
61 32 34 1
62 32 36 1
63 1 33 2
64 34 130 1
65 34 131 1
66 34 132 1
67 2 35 1
68 36 38 1
69 36 133 1
70 36 134 1
71 2 37 1
72 38 40 1
73 38 135 1
74 38 136 1
75 2 39 2
76 40 137 1
77 42 44 1
78 42 46 1
79 44 138 1
80 44 139 1
81 44 140 1
82 45 213 1
83 46 48 1
84 46 141 1
85 46 142 1
86 47 214 1
87 48 50 1
88 48 143 1
89 48 144 1
90 50 145 1
91 51 224 1
92 52 54 1
93 52 56 1
94 53 227 1
95 54 57 1
96 54 146 1
97 54 147 1
98 56 148 1
99 56 149 1
100 56 150 1
101 57 58 1
102 57 151 1
103 57 152 1
104 58 153 1
105 59 60 1
106 59 61 1
107 60 62 1
108 60 154 1
109 60 155 1
110 61 156 1
111 61 157 1
112 61 158 1
113 62 63 1
114 62 159 1
115 62 160 1
116 63 161 1
117 64 65 1
118 64 66 1
119 65 67 1
120 65 162 1
121 65 163 1
122 66 164 1
123 66 165 1
124 66 166 1
125 67 68 1
126 67 167 1
127 67 168 1
128 68 169 1
129 69 70 1
130 69 71 1
131 70 72 1
132 70 170 1
133 70 171 1
134 71 172 1
135 71 173 1
136 71 174 1
137 72 73 1
138 72 175 1
139 72 176 1
140 73 177 1
141 74 75 1
142 74 76 1
143 75 77 1
144 75 178 1
145 75 179 1
146 76 180 1
147 76 181 1
148 76 182 1
149 77 78 1
150 77 183 1
151 77 184 1
152 78 185 1
153 79 80 1
154 79 81 1
155 80 82 1
156 80 186 1
157 80 187 1
158 81 188 1
159 81 189 1
160 81 190 1
161 82 83 1
162 82 191 1
163 82 192 1
164 83 193 1
165 84 85 1
166 84 86 1
167 85 87 1
168 85 194 1
169 85 195 1
170 86 196 1
171 86 197 1
172 86 198 1
173 87 88 1
174 87 199 1
175 87 200 1
176 88 201 1
177 89 90 1
178 89 91 1
179 90 202 1
180 90 203 1
181 90 204 1
182 91 205 1
183 91 206 1
184 91 207 1
185 41 92 1
186 43 92 1
187 92 93 1
188 92 208 1
189 45 93 1
190 93 94 1
191 93 209 1
192 47 94 1
193 94 96 1
194 94 210 1
195 41 95 1
196 95 96 1
197 95 97 1
198 95 211 1
199 25 96 1
200 96 212 1
201 97 215 1
202 97 216 1
203 97 217 1
204 35 98 1
205 49 98 1
206 98 99 1
207 98 218 1
208 99 100 1
209 99 219 1
210 43 100 1
211 100 102 1
212 100 220 1
213 49 101 1
214 101 102 1
215 101 103 1
216 101 221 1
217 51 102 1
218 102 222 1
219 53 103 1
220 103 225 1
221 103 226 1
222 55 104 2
223 104 105 1
224 105 228 1
225 105 229 1
226 105 230 1
227 30 32 2
228 40 42 2
229 50 52 2
230 58 59 2
231 63 64 2
232 68 69 2
233 73 74 2
234 78 79 2
235 83 84 2
236 88 89 2
@<TRIPOS>SUBSTRUCTURE
1	L021	1	GROUP	1 Z	L02
