# created with PyMOL 2.5.2
@<TRIPOS>MOLECULE
final
27 27 1                 
SMALL
USER_CHARGES
@<TRIPOS>ATOM
1	   C	27.991	17.696	-2.718	C.3	1	L011	0.000	
2	   C	28.910	18.550	-1.879	C.3	1	L011	0.000	
3	   C	29.396	19.574	-2.877	C.3	1	L011	0.000	
4	   C	30.740	20.093	-2.482	C.3	1	L011	0.000	
5	   C	27.619	17.706	-5.180	C.3	1	L011	0.000	
6	   C	28.663	17.684	-4.075	C.3	1	L011	0.000	
7	   O	27.893	16.374	-2.184	O.3	1	L011	0.000	
8	   O	28.202	19.170	-0.805	O.3	1	L011	0.000	
9	   O	29.476	18.871	-4.131	O.3	1	L011	0.000	
10	   O	28.191	17.534	-6.470	O.3	1	L011	0.000	
11	   O	29.470	16.532	-4.211	O.3	1	L011	0.000	
12	   O	31.250	20.877	-3.586	O.3	1	L011	0.000	
13	   O	32.939	22.082	-5.161	O.3	1	L011	0.000	
14	   O	33.702	20.199	-3.562	O.co2	1	L011	0.000	
15	   O	32.969	22.511	-2.547	O.co2	1	L011	0.000	
16	   P	32.811	21.373	-3.687	P.3	1	L011	0.000	
17	   H	27.015	18.129	-2.778	 H	1	L011	0.000	
18	   H	29.723	17.975	-1.486	 H	1	L011	0.000	
19	   H	28.706	20.388	-2.946	 H	1	L011	0.000	
20	   H	27.073	15.970	-2.478	 H	1	L011	0.000	
21	   H	28.829	19.520	-0.167	 H	1	L011	0.000	
22	   H	31.401	19.276	-2.278	 H	1	L011	0.000	
23	   H	30.651	20.706	-1.609	 H	1	L011	0.000	
24	   H	26.918	16.918	-5.007	 H	1	L011	0.000	
25	   H	27.112	18.648	-5.153	 H	1	L011	0.000	
26	   H	28.890	16.877	-6.425	 H	1	L011	0.000	
27	   H	30.317	16.680	-3.783	 H	1	L011	0.000	
@<TRIPOS>BOND
1 1 2 1
2 1 6 1
3 1 7 1
4 1 17 1
5 2 3 1
6 2 8 1
7 2 18 1
8 3 4 1
9 3 9 1
10 3 19 1
11 4 12 1
12 4 22 1
13 4 23 1
14 5 6 1
15 5 10 1
16 5 24 1
17 5 25 1
18 6 11 1
19 7 20 1
20 8 21 1
21 6 9 1
22 10 26 1
23 11 27 1
24 12 16 1
25 13 16 1
26 14 16 1
27 15 16 2
@<TRIPOS>SUBSTRUCTURE
1	L011	1	GROUP	1 Y	L01
