# created with PyMOL 2.4.0
@<TRIPOS>MOLECULE
production
27 27 1                 
SMALL
USER_CHARGES
@<TRIPOS>ATOM
1	  P1	33.077	20.700	-3.434	P.3	1	L011	0.000	
2	  C1	27.934	17.740	-2.616	C.3	1	L011	0.000	
3	  O1	27.829	16.407	-2.110	O.3	1	L011	0.000	
4	  C2	28.840	18.578	-1.748	C.3	1	L011	0.000	
5	  O2	28.117	19.176	-0.672	O.3	1	L011	0.000	
6	  C3	29.339	19.621	-2.719	C.3	1	L011	0.000	
7	  O3	29.437	18.943	-3.985	O.3	1	L011	0.000	
8	  C4	30.677	20.133	-2.296	C.3	1	L011	0.000	
9	  O4	28.133	17.378	-6.330	O.3	1	L011	0.000	
10	  C5	27.596	17.798	-5.082	C.3	1	L011	0.000	
11	  O5	29.434	16.606	-4.111	O.3	1	L011	0.000	
12	  C6	28.624	17.755	-3.964	C.3	1	L011	0.000	
13	  O6	31.514	20.203	-3.474	O.3	1	L011	0.000	
14	  O7	33.573	20.673	-4.998	O.co2	1	L011	0.000	
15	  O8	33.861	19.770	-2.593	O.co2	1	L011	0.000	
16	  O9	33.021	22.238	-2.933	O.co2	1	L011	0.000	
17	  H1	26.914	18.121	-2.657	 H	1	L011	0.000	
18	  H2	28.716	16.044	-2.063	 H	1	L011	0.000	
19	  H3	29.638	18.009	-1.271	 H	1	L011	0.000	
20	  H4	27.781	18.467	-0.119	 H	1	L011	0.000	
21	  H5	28.673	20.482	-2.768	 H	1	L011	0.000	
22	  H6	31.120	19.456	-1.566	 H	1	L011	0.000	
23	  H7	30.573	21.125	-1.855	 H	1	L011	0.000	
24	  H8	28.857	17.970	-6.549	 H	1	L011	0.000	
25	  H9	26.766	17.142	-4.820	 H	1	L011	0.000	
26	 H10	27.233	18.820	-5.184	 H	1	L011	0.000	
27	 H11	30.341	16.902	-4.216	 H	1	L011	0.000	
@<TRIPOS>BOND
1 1 13 1
2 1 14 1
3 1 15 1
4 1 16 2
5 2 3 1
6 2 4 1
7 2 12 1
8 2 17 1
9 3 18 1
10 4 5 1
11 4 6 1
12 4 19 1
13 5 20 1
14 6 7 1
15 6 8 1
16 6 21 1
17 7 12 1
18 8 13 1
19 8 22 1
20 8 23 1
21 9 10 1
22 9 24 1
23 10 12 1
24 10 25 1
25 10 26 1
26 11 12 1
27 11 27 1
@<TRIPOS>SUBSTRUCTURE
1	L011	1	GROUP	1 Y	L01
