# Title Card Required
# Created by GaussView 6.0.16
#

#
#

@<TRIPOS>MOLECULE
Molecule Name
8 7
SMALL
NO_CHARGES


@<TRIPOS>ATOM
1 C1    -0.0793     0.3755    -0.1848 C
2 H2     0.2705    -0.2273    -1.0308 H
3 C3     0.0894     1.8533    -0.4062 C
4 H4    -0.4419     2.1975    -1.3057 H
5 H5    -0.2602     2.4417     0.4546 H
6 H6     1.1639     2.0566    -0.5494 H
7 I7    -2.1622    -0.1994     0.0601 I
8 H8     0.4001     0.0225     0.7359 H
@<TRIPOS>BOND
1 1 2 1
2 1 3 1
3 1 7 1
4 1 8 1
5 3 4 1
6 3 5 1
7 3 6 1
