# created with PyMOL 2.3.2
@<TRIPOS>MOLECULE
atHMT-SAH_aH
46 48 1                 
SMALL
USER_CHARGES
@<TRIPOS>ATOM
1	   N	-5.916	23.752	9.785	N.3	1	SAH1	0.000	
2	  CA	-6.464	24.718	8.794	C.3	1	SAH1	0.000	
3	   C	-6.513	24.038	7.455	C.2	1	SAH1	0.000	
4	   O	-6.132	22.857	7.310	O.co2	1	SAH1	0.000	
5	  CB	-5.619	26.004	8.747	C.3	1	SAH1	0.000	
6	  CG	-4.123	25.735	8.658	C.3	1	SAH1	0.000	
7	  SD	-3.148	27.229	8.653	S.3	1	SAH1	0.000	
8	 C5'	-2.777	27.460	10.374	C.3	1	SAH1	0.000	
9	 C4'	-3.817	28.224	11.197	C.3	1	SAH1	0.000	
10	 O4'	-3.382	28.211	12.574	O.3	1	SAH1	0.000	
11	 C3'	-4.005	29.693	10.811	C.3	1	SAH1	0.000	
12	 O3'	-5.382	29.919	10.455	O.3	1	SAH1	0.000	
13	 C2'	-3.543	30.474	12.036	C.3	1	SAH1	0.000	
14	 O2'	-4.271	31.668	12.328	O.3	1	SAH1	0.000	
15	 C1'	-3.775	29.467	13.147	C.3	1	SAH1	0.000	
16	 OXT	-6.964	24.648	6.483	O.co2	1	SAH1	0.000	
17	  N1	-3.958	29.104	18.265	N.3	1	SAH1	0.000	
18	  C2	-4.931	28.964	17.359	C.3	1	SAH1	0.000	
19	  N3	-4.708	29.114	16.040	N.3	1	SAH1	0.000	
20	  C4	-3.474	29.399	15.564	C.3	1	SAH1	0.000	
21	  C5	-2.359	29.567	16.494	C.3	1	SAH1	0.000	
22	  C6	-2.689	29.387	17.926	C.3	1	SAH1	0.000	
23	  N6	-1.735	29.524	18.870	N.3	1	SAH1	0.000	
24	  N7	-1.254	29.843	15.757	N.3	1	SAH1	0.000	
25	  C8	-1.642	29.852	14.453	C.3	1	SAH1	0.000	
26	  N9	-2.975	29.613	14.364	N.3	1	SAH1	0.000	
27	   H	-6.493	22.911	9.795	 H	1	SAH1	0.000	
28	  H1	-5.918	24.178	10.712	 H	1	SAH1	0.000	
29	  H2	-4.961	23.505	9.527	 H	1	SAH1	0.000	
30	  H3	-7.451	25.015	9.080	 H	1	SAH1	0.000	
31	  H4	-5.914	26.574	7.891	 H	1	SAH1	0.000	
32	  H5	-5.793	26.533	9.661	 H	1	SAH1	0.000	
33	  H6	-3.832	25.141	9.499	 H	1	SAH1	0.000	
34	  H7	-3.942	25.230	7.732	 H	1	SAH1	0.000	
35	  H8	-1.853	27.996	10.439	 H	1	SAH1	0.000	
36	  H9	-2.749	26.476	10.794	 H	1	SAH1	0.000	
37	 H10	-4.751	27.732	11.019	 H	1	SAH1	0.000	
38	 H11	-3.443	30.001	9.954	 H	1	SAH1	0.000	
39	 H12	-5.954	29.659	11.194	 H	1	SAH1	0.000	
40	 H13	-2.542	30.827	11.898	 H	1	SAH1	0.000	
41	 H14	-5.205	31.450	12.471	 H	1	SAH1	0.000	
42	 H15	-4.791	29.584	13.460	 H	1	SAH1	0.000	
43	 H16	-5.884	28.733	17.681	 H	1	SAH1	0.000	
44	 H17	-0.809	29.731	18.608	 H	1	SAH1	0.000	
45	 H18	-1.965	29.417	19.821	 H	1	SAH1	0.000	
46	 H19	-1.015	30.016	13.650	 H	1	SAH1	0.000	
@<TRIPOS>BOND
1 1 2 1
2 1 27 1
3 1 28 1
4 1 29 1
5 2 3 1
6 2 5 1
7 2 30 1
8 3 4 2
9 3 16 1
10 5 6 1
11 5 31 1
12 5 32 1
13 6 7 1
14 6 33 1
15 6 34 1
16 7 8 1
17 8 9 1
18 8 35 1
19 8 36 1
20 9 10 1
21 9 11 1
22 9 37 1
23 10 15 1
24 11 12 1
25 11 13 1
26 11 38 1
27 12 39 1
28 13 14 1
29 13 15 1
30 13 40 1
31 14 41 1
32 15 26 1
33 15 42 1
34 17 18 1
35 17 22 1
36 18 19 1
37 18 43 1
38 19 20 1
39 20 21 1
40 20 26 1
41 21 22 1
42 21 24 1
43 22 23 1
44 23 44 1
45 23 45 1
46 24 25 1
47 25 26 1
48 25 46 1
@<TRIPOS>SUBSTRUCTURE
1	SAH1	1	GROUP	1 B	SAH
