# created with PyMOL 2.5.2
@<TRIPOS>MOLECULE
production
14 13 1                 
SMALL
USER_CHARGES
@<TRIPOS>ATOM
1	  PA	-3.903	10.982	6.128	P.3	1	L011	0.000	
2	  PB	-1.489	12.402	6.985	P.3	1	L011	0.000	
3	  C1	-4.628	8.464	6.343	C.3	1	L011	0.000	
4	  O1	-4.487	9.752	6.967	O.3	1	L011	0.000	
5	 O1A	-3.516	10.583	4.741	O.co2	1	L011	0.000	
6	 O1B	-0.897	12.366	8.372	O.co2	1	L011	0.000	
7	  C2	-5.740	7.708	7.019	C.3	1	L011	0.000	
8	 O2A	-4.814	12.156	6.247	O.co2	1	L011	0.000	
9	 O2B	-2.224	13.680	6.660	O.co2	1	L011	0.000	
10	  C3	-6.637	6.963	6.070	C.2	1	L011	0.000	
11	 O3A	-2.592	11.231	7.021	O.3	1	L011	0.000	
12	 O3B	-0.493	12.032	5.901	O.co2	1	L011	0.000	
13	  C4	-7.954	7.117	6.078	C.3	1	L011	0.000	
14	  C5	-5.941	6.026	5.121	C.2	1	L011	0.000	
@<TRIPOS>BOND
1 1 4 1
2 1 5 1
3 1 8 2
4 1 11 1
5 2 6 1
6 2 9 1
7 2 11 1
8 2 12 2
9 3 4 1
10 3 7 1
11 7 10 1
12 10 13 1
13 10 14 2
@<TRIPOS>SUBSTRUCTURE
1	L011	1	GROUP	1 Y	L01
