# created with PyMOL 2.5.2
@<TRIPOS>MOLECULE
production
24 23 1                 
SMALL
USER_CHARGES
@<TRIPOS>ATOM
1	  PA	-6.427	10.232	0.470	P.3	1	L021	0.000	
2	  PB	-4.061	11.765	-0.699	P.3	1	L021	0.000	
3	  C1	-8.946	10.872	0.902	C.3	1	L021	0.000	
4	  O1	-7.879	10.706	-0.030	O.3	1	L021	0.000	
5	 O1A	-6.188	10.821	1.820	O.co2	1	L021	0.000	
6	 O1B	-3.296	11.540	0.599	O.co2	1	L021	0.000	
7	  C2	-9.827	9.664	0.906	C.2	1	L021	0.000	
8	 O2A	-6.288	8.751	0.296	O.co2	1	L021	0.000	
9	 O2B	-4.422	13.230	-0.905	O.co2	1	L021	0.000	
10	  C3	-9.671	8.584	1.667	C.2	1	L021	0.000	
11	 O3A	-5.475	10.951	-0.618	O.3	1	L021	0.000	
12	 O3B	-3.365	11.172	-1.886	O.co2	1	L021	0.000	
13	  C4	-8.576	8.446	2.686	C.3	1	L021	0.000	
14	  C5	-10.596	7.399	1.569	C.3	1	L021	0.000	
15	  C6	-11.072	7.052	0.166	C.3	1	L021	0.000	
16	  C7	-12.109	5.967	0.113	C.2	1	L021	0.000	
17	  C8	-11.940	4.665	-0.100	C.2	1	L021	0.000	
18	  C9	-13.115	3.765	-0.355	C.3	1	L021	0.000	
19	 C10	-10.605	3.985	-0.156	C.3	1	L021	0.000	
20	 C11	-13.387	2.759	0.745	C.3	1	L021	0.000	
21	 C12	-14.790	2.815	1.262	C.2	1	L021	0.000	
22	 C13	-15.193	2.816	2.519	C.2	1	L021	0.000	
23	 C14	-14.246	2.739	3.672	C.3	1	L021	0.000	
24	 C15	-16.634	2.916	2.907	C.3	1	L021	0.000	
@<TRIPOS>BOND
1 1 4 1
2 1 5 1
3 1 8 2
4 1 11 1
5 2 6 1
6 2 9 2
7 2 11 1
8 2 12 1
9 3 4 1
10 3 7 1
11 10 13 1
12 10 14 1
13 14 15 1
14 15 16 1
15 17 18 1
16 17 19 1
17 18 20 1
18 20 21 1
19 22 23 1
20 22 24 1
21 21 22 2
22 16 17 2
23 7 10 2
@<TRIPOS>SUBSTRUCTURE
1	L021	1	GROUP	1 Z	L02
