# created with PyMOL 2.5.2
@<TRIPOS>MOLECULE
production
31 33 1                 
SMALL
USER_CHARGES
@<TRIPOS>ATOM
1	  PA	17.433	-0.781	-14.419	P.3	1	L011	0.000	
2	  PB	15.305	-2.756	-14.657	P.3	1	L011	0.000	
3	  PG	15.293	-5.299	-13.188	P.3	1	L011	0.000	
4	 C5'	19.476	-1.416	-15.903	C.3	1	L011	0.000	
5	 O5'	18.532	-0.479	-15.512	O.3	1	L011	0.000	
6	 C4'	20.692	-0.859	-16.390	C.3	1	L011	0.000	
7	 O4'	20.456	-0.157	-17.650	O.3	1	L011	0.000	
8	 C3'	21.145	0.134	-15.410	C.3	1	L011	0.000	
9	 O3'	22.497	-0.103	-15.082	O.3	1	L011	0.000	
10	 C2'	20.984	1.436	-16.042	C.3	1	L011	0.000	
11	 O2'	22.115	2.242	-15.858	O.3	1	L011	0.000	
12	 C1'	20.814	1.168	-17.489	C.3	1	L011	0.000	
13	  N1	19.540	4.382	-21.332	N.2	1	L011	0.000	
14	 O1A	18.057	-1.278	-13.163	O.co2	1	L011	0.000	
15	 O1B	14.942	-1.925	-13.376	O.2	1	L011	0.000	
16	 O1G	16.242	-6.594	-13.044	O.3	1	L011	0.000	
17	  C2	20.669	3.661	-21.194	C.2	1	L011	0.000	
18	 O2A	16.615	0.455	-14.233	O.co2	1	L011	0.000	
19	 O2B	14.262	-2.847	-15.797	O.3	1	L011	0.000	
20	 O2G	15.233	-4.683	-11.786	O.2	1	L011	0.000	
21	  N3	20.878	2.866	-20.152	N.2	1	L011	0.000	
22	 O3A	16.657	-1.977	-15.077	O.3	1	L011	0.000	
23	 O3G	13.927	-5.722	-13.673	O.2	1	L011	0.000	
24	  C4	19.931	2.765	-19.193	C.2	1	L011	0.000	
25	  C5	18.752	3.492	-19.312	C.2	1	L011	0.000	
26	  C6	18.567	4.318	-20.411	C.2	1	L011	0.000	
27	  N6	17.341	5.093	-20.537	N.pl3	1	L011	0.000	
28	  N7	17.985	3.211	-18.241	N.2	1	L011	0.000	
29	  C8	18.631	2.353	-17.464	C.2	1	L011	0.000	
30	  N9	19.807	2.082	-18.046	N.2	1	L011	0.000	
31	   P	16.101	-4.183	-14.163	N.3	1	L011	0.000	
@<TRIPOS>BOND
1 1 5 1
2 1 14 1
3 1 18 2
4 1 22 1
5 2 15 2
6 2 19 1
7 2 22 1
8 2 31 1
9 3 16 1
10 3 20 2
11 3 23 2
12 3 31 1
13 4 5 1
14 4 6 1
15 6 7 1
16 6 8 1
17 7 12 1
18 8 9 1
19 8 10 1
20 10 11 1
21 10 12 1
22 12 30 1
23 13 17 ar
24 13 26 ar
25 17 21 ar
26 21 24 ar
27 24 25 ar
28 24 30 ar
29 25 26 ar
30 25 28 ar
31 26 27 1
32 28 29 ar
33 29 30 ar
@<TRIPOS>SUBSTRUCTURE
1	L011	1	GROUP	1 Y	L01
