# created with PyMOL 2.5.2
@<TRIPOS>MOLECULE
L01
31 33 1                 
SMALL
USER_CHARGES
@<TRIPOS>ATOM
1	  PA	17.433	-0.781	-14.419	P.3	1	L011	0.000	
2	  PB	15.305	-2.756	-14.657	P.3	1	L011	0.000	
3	  PG	15.293	-5.299	-13.188	P.3	1	L011	0.000	
4	 C5'	19.476	-1.416	-15.903	C.3	1	L011	0.000	
5	 O5'	18.532	-0.479	-15.512	O.3	1	L011	0.000	
6	 C4'	20.692	-0.859	-16.390	C.3	1	L011	0.000	
7	 O4'	20.456	-0.157	-17.650	O.3	1	L011	0.000	
8	 C3'	21.145	0.134	-15.410	C.3	1	L011	0.000	
9	 O3'	22.497	-0.103	-15.082	O.3	1	L011	0.000	
10	 C2'	20.984	1.436	-16.042	C.3	1	L011	0.000	
11	 O2'	22.115	2.242	-15.858	O.3	1	L011	0.000	
12	 C1'	20.814	1.168	-17.489	C.3	1	L011	0.000	
13	  N1	19.540	4.382	-21.332	N.2	1	L011	0.000	
14	 O1A	18.057	-1.278	-13.163	O.co2	1	L011	0.000	
15	 O1B	14.942	-1.925	-13.376	O.co2	1	L011	0.000	
16	 O1G	16.242	-6.594	-13.044	O.co2	1	L011	0.000	
17	  C2	20.669	3.661	-21.194	C.2	1	L011	0.000	
18	 O2A	16.615	0.455	-14.233	O.co2	1	L011	0.000	
19	 O2B	14.262	-2.847	-15.797	O.co2	1	L011	0.000	
20	 O2G	15.233	-4.683	-11.786	O.co2	1	L011	0.000	
21	  N3	20.878	2.866	-20.152	N.2	1	L011	0.000	
22	 O3A	16.657	-1.977	-15.077	O.3	1	L011	0.000	
23	 O3G	13.927	-5.722	-13.673	O.co2	1	L011	0.000	
24	  C4	19.931	2.765	-19.193	C.2	1	L011	0.000	
25	  C5	18.752	3.492	-19.312	C.2	1	L011	0.000	
26	  C6	18.567	4.318	-20.411	C.2	1	L011	0.000	
27	  N6	17.341	5.093	-20.537	N.pl3	1	L011	0.000	
28	  O6	16.101	-4.183	-14.163	O.3	1	L011	0.000	
29	  N7	17.985	3.211	-18.241	N.2	1	L011	0.000	
30	  C8	18.631	2.353	-17.464	C.2	1	L011	0.000	
31	  N9	19.807	2.082	-18.046	N.2	1	L011	0.000	
@<TRIPOS>BOND
1 1 5 1
2 1 14 1
3 1 18 2
4 1 22 1
5 2 15 1
6 2 19 2
7 2 22 1
8 3 16 1
9 3 20 1
10 3 23 2
11 4 5 1
12 4 6 1
13 6 7 1
14 6 8 1
15 7 12 1
16 8 9 1
17 8 10 1
18 10 11 1
19 10 12 1
20 12 31 1
21 13 17 ar
22 13 26 ar
23 17 21 ar
24 21 24 ar
25 24 25 ar
26 24 31 ar
27 25 26 ar
28 25 29 ar
29 26 27 1
30 2 28 1
31 3 28 1
32 29 30 ar
33 30 31 ar
@<TRIPOS>SUBSTRUCTURE
1	L011	1	GROUP	1 Y	L01
