# created with PyMOL 2.5.2
@<TRIPOS>MOLECULE
L02_0001
39 41 1                 
SMALL
USER_CHARGES
@<TRIPOS>ATOM
1	  P1	10.111	-8.898	-10.273	P.3	1	L021	0.000	
2	  C1	12.639	-9.161	-10.656	C.3	1	L021	0.000	
3	  N1	13.532	-13.883	-13.548	N.2	1	L021	0.000	
4	  O1	11.554	-9.312	-9.791	O.3	1	L021	0.000	
5	  S1	8.274	-10.526	-11.576	S.3	1	L021	0.000	
6	  C2	13.928	-9.038	-10.028	C.3	1	L021	0.000	
7	  N2	14.063	-11.869	-12.460	N.2	1	L021	0.000	
8	  O2	14.241	-10.254	-9.357	O.3	1	L021	0.000	
9	  C3	14.957	-8.828	-11.079	C.3	1	L021	0.000	
10	  N3	14.150	-16.024	-12.618	N.pl3	1	L021	0.000	
11	  O3	15.640	-7.646	-10.801	O.3	1	L021	0.000	
12	  C4	15.890	-9.869	-10.937	C.3	1	L021	0.000	
13	  N4	15.389	-14.334	-10.371	N.2	1	L021	0.000	
14	  O4	17.049	-9.266	-10.467	O.3	1	L021	0.000	
15	  C5	15.424	-10.783	-9.873	C.3	1	L021	0.000	
16	  N5	15.308	-12.141	-10.332	N.2	1	L021	0.000	
17	  O5	9.232	-8.878	-9.050	O.co2	1	L021	0.000	
18	  C6	13.501	-12.541	-13.491	C.2	1	L021	0.000	
19	  O6	7.731	-11.301	-10.496	O.3	1	L021	0.000	
20	  C7	14.671	-12.528	-11.449	C.2	1	L021	0.000	
21	  O7	10.175	-7.539	-10.953	O.co2	1	L021	0.000	
22	  C8	14.725	-13.928	-11.474	C.2	1	L021	0.000	
23	  O8	8.349	-11.382	-12.782	 O	1	L021	0.000	
24	  C9	14.129	-14.597	-12.561	C.2	1	L021	0.000	
25	  O9	9.678	-10.071	-11.264	O.3	1	L021	0.000	
26	 C10	15.745	-13.240	-9.674	C.2	1	L021	0.000	
27	 O10	7.422	-9.362	-11.892	O.2	1	L021	0.000	
28	  H1	12.470	-8.264	-11.251	 H	1	L021	0.000	
29	  H2	12.668	-10.031	-11.311	 H	1	L021	0.000	
30	  H3	13.911	-8.204	-9.326	 H	1	L021	0.000	
31	  H4	14.503	-8.795	-12.069	 H	1	L021	0.000	
32	  H5	15.005	-6.927	-10.841	 H	1	L021	0.000	
33	  H6	16.031	-10.412	-11.871	 H	1	L021	0.000	
34	  H7	16.885	-8.322	-10.417	 H	1	L021	0.000	
35	  H8	16.159	-10.847	-9.071	 H	1	L021	0.000	
36	  H9	13.018	-11.988	-14.283	 H	1	L021	0.000	
37	 H10	14.592	-16.552	-11.879	 H	1	L021	0.000	
38	 H11	13.723	-16.505	-13.397	 H	1	L021	0.000	
39	 H12	16.290	-13.239	-8.742	 H	1	L021	0.000	
@<TRIPOS>BOND
1 1 4 1
2 1 17 1
3 1 21 2
4 1 25 1
5 2 4 1
6 2 6 1
7 2 28 1
8 2 29 1
9 3 18 ar
10 3 24 ar
11 5 19 1
12 5 23 1
13 5 25 1
14 5 27 2
15 6 8 1
16 6 9 1
17 6 30 1
18 7 20 ar
19 8 15 1
20 9 11 1
21 9 12 1
22 9 31 1
23 10 37 1
24 10 38 1
25 11 32 1
26 12 14 1
27 12 15 1
28 12 33 1
29 13 26 ar
30 14 34 1
31 15 16 1
32 15 35 1
33 7 18 ar
34 18 36 1
35 16 20 ar
36 20 22 ar
37 13 22 ar
38 22 24 ar
39 10 24 1
40 16 26 ar
41 26 39 1
@<TRIPOS>SUBSTRUCTURE
1	L021	1	GROUP	1 X	L02
