# created with PyMOL 2.5.2
@<TRIPOS>MOLECULE
production
28 30 1                 
SMALL
USER_CHARGES
@<TRIPOS>ATOM
1	  SB	8.274	-10.526	-11.576	S.3	1	L021	0.000	
2	  PA	10.111	-8.898	-10.273	P.3	1	L021	0.000	
3	 C5'	12.639	-9.161	-10.656	C.3	1	L021	0.000	
4	 O5'	11.554	-9.312	-9.791	O.3	1	L021	0.000	
5	 C4'	13.928	-9.038	-10.028	C.3	1	L021	0.000	
6	 O4'	14.241	-10.254	-9.357	O.3	1	L021	0.000	
7	 C3'	14.957	-8.828	-11.079	C.3	1	L021	0.000	
8	 O3'	15.640	-7.646	-10.801	O.3	1	L021	0.000	
9	 C2'	15.890	-9.869	-10.937	C.3	1	L021	0.000	
10	 O2'	17.049	-9.266	-10.467	O.3	1	L021	0.000	
11	 C1'	15.424	-10.783	-9.873	C.3	1	L021	0.000	
12	  N1	13.532	-13.883	-13.548	N.2	1	L021	0.000	
13	 O1A	9.232	-8.878	-9.050	O.co2	1	L021	0.000	
14	 O1B	7.731	-11.301	-10.496	O.3	1	L021	0.000	
15	  C2	13.501	-12.541	-13.491	C.2	1	L021	0.000	
16	 O2A	10.175	-7.539	-10.953	O.co2	1	L021	0.000	
17	 O2B	8.349	-11.382	-12.782	 O	1	L021	0.000	
18	  N3	14.063	-11.869	-12.460	N.2	1	L021	0.000	
19	 O3A	9.678	-10.071	-11.264	O.3	1	L021	0.000	
20	 O3B	7.422	-9.362	-11.892	O.2	1	L021	0.000	
21	  C4	14.671	-12.528	-11.449	C.2	1	L021	0.000	
22	  C5	14.725	-13.928	-11.474	C.2	1	L021	0.000	
23	  C6	14.129	-14.597	-12.561	C.2	1	L021	0.000	
24	  N6	14.150	-16.024	-12.618	N.pl3	1	L021	0.000	
25	  N7	15.389	-14.334	-10.371	N.2	1	L021	0.000	
26	  C8	15.745	-13.240	-9.674	C.2	1	L021	0.000	
27	  N9	15.308	-12.141	-10.332	N.2	1	L021	0.000	
28	 H01	15.820	-7.593	-9.859	 H	1	L021	0.000	
@<TRIPOS>BOND
1 1 14 1
2 1 17 1
3 1 19 1
4 1 20 2
5 2 4 1
6 2 13 1
7 2 16 2
8 2 19 1
9 3 4 1
10 3 5 1
11 5 6 1
12 5 7 1
13 6 11 1
14 7 8 1
15 7 9 1
16 8 28 1
17 9 10 1
18 9 11 1
19 11 27 1
20 12 15 ar
21 12 23 ar
22 15 18 ar
23 18 21 ar
24 21 22 ar
25 21 27 ar
26 22 23 ar
27 22 25 ar
28 23 24 1
29 25 26 ar
30 26 27 ar
@<TRIPOS>SUBSTRUCTURE
1	L021	1	GROUP	1 Z	L02
