@<TRIPOS>MOLECULE
production.****
39 41 1 0 0 
SMALL
USER_CHARGES


@<TRIPOS>ATOM
  1 S        8.2740   -10.5260   -11.5760 S.o2  1 UNK0   1.6337 
  2 P       10.1110    -8.8980   -10.2730 P.3   1 UNK0   1.4424 
  3 C       12.6390    -9.1610   -10.6560 C.3   1 UNK0   0.1200 
  4 H1      12.4699    -8.2636   -11.2512 H     1 UNK0   0.0800 
  5 H2      12.6679   -10.0315   -11.3114 H     1 UNK0   0.0800 
  6 O       11.5540    -9.3120    -9.7910 O.3   1 UNK0  -0.5512 
  7 C       13.9280    -9.0380   -10.0280 C.3   1 UNK0   0.2000 
  8 H       13.9105    -8.2045    -9.3258 H     1 UNK0   0.0800 
  9 O       14.2410   -10.2540    -9.3570 O.3   1 UNK0  -0.5600 
 10 C       14.9570    -8.8280   -11.0790 C.3   1 UNK0   0.2000 
 11 H       14.5033    -8.7948   -12.0695 H     1 UNK0   0.0800 
 12 O       15.6400    -7.6460   -10.8010 O.3   1 UNK0  -0.6800 
 13 H       15.0047    -6.9274   -10.8409 H     1 UNK0   0.4000 
 14 C       15.8900    -9.8690   -10.9370 C.3   1 UNK0   0.2000 
 15 H       16.0311   -10.4124   -11.8713 H     1 UNK0   0.0800 
 16 O       17.0490    -9.2660   -10.4670 O.3   1 UNK0  -0.6800 
 17 H       16.8849    -8.3215   -10.4166 H     1 UNK0   0.4000 
 18 C       15.4240   -10.7830    -9.8730 C.3   1 UNK0   0.4556 
 19 H       16.1594   -10.8470    -9.0710 H     1 UNK0   0.0800 
 20 N       13.5320   -13.8830   -13.5480 N.ar  1 UNK0  -0.6200 
 21 O        9.2320    -8.8780    -9.0500 O.co2 1 UNK0  -0.9500 
 22 O        7.7310   -11.3010   -10.4960 O.co2 1 UNK0  -0.8167 
 23 C       13.5010   -12.5410   -13.4910 C.ar  1 UNK0   0.4700 
 24 H       13.0183   -11.9882   -14.2833 H     1 UNK0   0.1500 
 25 O       10.1750    -7.5390   -10.9530 O.co2 1 UNK0  -0.9500 
 26 O        8.3490   -11.3820   -12.7820 O.co2 1 UNK0  -0.8167 
 27 N       14.0630   -11.8690   -12.4600 N.ar  1 UNK0  -0.5670 
 28 O        9.6780   -10.0710   -11.2640 O.3   1 UNK0  -0.4549 
 29 O        7.4220    -9.3620   -11.8920 O.co2 1 UNK0  -0.8167 
 30 C       14.6710   -12.5280   -11.4490 C.ar  1 UNK0   0.1054 
 31 C       14.7250   -13.9280   -11.4740 C.ar  1 UNK0   0.2272 
 32 C       14.1290   -14.5970   -12.5610 C.ar  1 UNK0   0.4100 
 33 N       14.1500   -16.0240   -12.6180 N.pl3 1 UNK0  -0.9000 
 34 H1      14.5919   -16.5525   -11.8794 H     1 UNK0   0.4000 
 35 H2      13.7230   -16.5046   -13.3969 H     1 UNK0   0.4000 
 36 N       15.3890   -14.3340   -10.3710 N.2   1 UNK0  -0.5653 
 37 C       15.7450   -13.2400    -9.6740 C.2   1 UNK0   0.0365 
 38 H       16.2903   -13.2388    -8.7418 H     1 UNK0   0.1500 
 39 N       15.3080   -12.1410   -10.3320 N.pl3 1 UNK0   0.0476 
@<TRIPOS>BOND
  1   1  22  ar  
  2   1  26  ar  
  3   1  28  1   
  4   1  29  ar  
  5   2   6  1   
  6   2  21  ar  
  7   2  25  ar  
  8   2  28  1   
  9   3   4  1   
 10   3   5  1   
 11   3   6  1   
 12   3   7  1   
 13   7   8  1   
 14   7   9  1   
 15   7  10  1   
 16   9  18  1   
 17  10  11  1   
 18  10  12  1   
 19  10  14  1   
 20  12  13  1   
 21  14  15  1   
 22  14  16  1   
 23  14  18  1   
 24  16  17  1   
 25  18  19  1   
 26  18  39  1   
 27  20  23  ar  
 28  20  32  ar  
 29  23  24  1   
 30  23  27  ar  
 31  27  30  ar  
 32  30  31  ar  
 33  30  39  1   
 34  31  32  ar  
 35  31  36  1   
 36  32  33  1   
 37  33  34  1   
 38  33  35  1   
 39  36  37  2   
 40  37  38  1   
 41  37  39  1   
@<TRIPOS>SUBSTRUCTURE
  1 UNK0   3 GROUP 4 **** **** 0

# MOE 2022.02 (io_trps.svl 2020.11)
