@<TRIPOS>MOLECULE
L02_0001.****
39 41 1 0 0 
SMALL
USER_CHARGES


@<TRIPOS>ATOM
  1 P       10.1110    -8.8980   -10.2730 P.3   1 UNK0   1.4424 
  2 C       12.6390    -9.1610   -10.6560 C.3   1 UNK0   0.1200 
  3 H1      12.4699    -8.2636   -11.2512 H     1 UNK0   0.0800 
  4 H2      12.6679   -10.0315   -11.3114 H     1 UNK0   0.0800 
  5 N       13.5320   -13.8830   -13.5480 N.ar  1 UNK0  -0.6200 
  6 O       11.5540    -9.3120    -9.7910 O.3   1 UNK0  -0.5512 
  7 S        8.2740   -10.5260   -11.5760 S.o2  1 UNK0   1.6337 
  8 C       13.9280    -9.0380   -10.0280 C.3   1 UNK0   0.2000 
  9 H       13.9105    -8.2045    -9.3258 H     1 UNK0   0.0800 
 10 N       14.0630   -11.8690   -12.4600 N.ar  1 UNK0  -0.5670 
 11 O       14.2410   -10.2540    -9.3570 O.3   1 UNK0  -0.5600 
 12 C       14.9570    -8.8280   -11.0790 C.3   1 UNK0   0.2000 
 13 H       14.5033    -8.7948   -12.0695 H     1 UNK0   0.0800 
 14 N       14.1500   -16.0240   -12.6180 N.pl3 1 UNK0  -0.9000 
 15 H1      14.5919   -16.5525   -11.8794 H     1 UNK0   0.4000 
 16 H2      13.7230   -16.5046   -13.3969 H     1 UNK0   0.4000 
 17 O       15.6400    -7.6460   -10.8010 O.3   1 UNK0  -0.6800 
 18 H       15.0047    -6.9274   -10.8409 H     1 UNK0   0.4000 
 19 C       15.8900    -9.8690   -10.9370 C.3   1 UNK0   0.2000 
 20 H       16.0311   -10.4124   -11.8713 H     1 UNK0   0.0800 
 21 N       15.3890   -14.3340   -10.3710 N.2   1 UNK0  -0.5653 
 22 O       17.0490    -9.2660   -10.4670 O.3   1 UNK0  -0.6800 
 23 H       16.8849    -8.3215   -10.4166 H     1 UNK0   0.4000 
 24 C       15.4240   -10.7830    -9.8730 C.3   1 UNK0   0.4556 
 25 H       16.1594   -10.8470    -9.0710 H     1 UNK0   0.0800 
 26 N       15.3080   -12.1410   -10.3320 N.pl3 1 UNK0   0.0476 
 27 O        9.2320    -8.8780    -9.0500 O.co2 1 UNK0  -0.9500 
 28 C       13.5010   -12.5410   -13.4910 C.ar  1 UNK0   0.4700 
 29 H       13.0183   -11.9882   -14.2833 H     1 UNK0   0.1500 
 30 O        7.7310   -11.3010   -10.4960 O.co2 1 UNK0  -0.8167 
 31 C       14.6710   -12.5280   -11.4490 C.ar  1 UNK0   0.1054 
 32 O       10.1750    -7.5390   -10.9530 O.co2 1 UNK0  -0.9500 
 33 C       14.7250   -13.9280   -11.4740 C.ar  1 UNK0   0.2272 
 34 O        8.3490   -11.3820   -12.7820 O.co2 1 UNK0  -0.8167 
 35 C       14.1290   -14.5970   -12.5610 C.ar  1 UNK0   0.4100 
 36 O        9.6780   -10.0710   -11.2640 O.3   1 UNK0  -0.4549 
 37 C       15.7450   -13.2400    -9.6740 C.2   1 UNK0   0.0365 
 38 H       16.2903   -13.2388    -8.7418 H     1 UNK0   0.1500 
 39 O        7.4220    -9.3620   -11.8920 O.co2 1 UNK0  -0.8167 
@<TRIPOS>BOND
  1   1   6  1   
  2   1  27  ar  
  3   1  32  ar  
  4   1  36  1   
  5   2   3  1   
  6   2   4  1   
  7   2   6  1   
  8   2   8  1   
  9   5  28  ar  
 10   5  35  ar  
 11   7  30  ar  
 12   7  34  ar  
 13   7  36  1   
 14   7  39  ar  
 15   8   9  1   
 16   8  11  1   
 17   8  12  1   
 18  10  28  ar  
 19  10  31  ar  
 20  11  24  1   
 21  12  13  1   
 22  12  17  1   
 23  12  19  1   
 24  14  15  1   
 25  14  16  1   
 26  14  35  1   
 27  17  18  1   
 28  19  20  1   
 29  19  22  1   
 30  19  24  1   
 31  21  33  1   
 32  21  37  2   
 33  22  23  1   
 34  24  25  1   
 35  24  26  1   
 36  26  31  1   
 37  26  37  1   
 38  28  29  1   
 39  31  33  ar  
 40  33  35  ar  
 41  37  38  1   
@<TRIPOS>SUBSTRUCTURE
  1 UNK0   2 GROUP 4 **** **** 0

# MOE 2022.02 (io_trps.svl 2020.11)
