# created with PyMOL 2.5.2
@<TRIPOS>MOLECULE
production
27 29 1                 
SMALL
USER_CHARGES
@<TRIPOS>ATOM
1	  PA	48.851	25.236	-15.469	P.3	1	L011	0.000	
2	  PB	49.546	22.319	-16.302	P.3	1	L011	0.000	
3	 C5'	47.568	24.239	-13.319	C.3	1	L011	0.000	
4	 O5'	47.536	24.704	-14.698	O.3	1	L011	0.000	
5	 C4'	46.267	24.615	-12.658	C.3	1	L011	0.000	
6	 O4'	45.672	23.447	-12.047	O.3	1	L011	0.000	
7	 C3'	46.333	25.642	-11.522	C.3	1	L011	0.000	
8	 O3'	46.324	26.955	-12.063	O.3	1	L011	0.000	
9	 C2'	45.035	25.354	-10.761	C.3	1	L011	0.000	
10	 O2'	43.935	26.095	-11.257	O.3	1	L011	0.000	
11	 C1'	44.885	23.838	-10.941	C.3	1	L011	0.000	
12	  N1	43.640	21.281	-6.602	N.2	1	L011	0.000	
13	 O1A	49.723	26.008	-14.524	O.co2	1	L011	0.000	
14	 O1B	51.014	21.938	-16.475	O.co2	1	L011	0.000	
15	  C2	42.890	21.850	-7.555	C.2	1	L011	0.000	
16	 O2A	48.435	25.900	-16.747	O.co2	1	L011	0.000	
17	 O2B	48.820	22.374	-17.649	O.co2	1	L011	0.000	
18	  N3	43.270	22.496	-8.659	N.2	1	L011	0.000	
19	 O3A	49.642	23.865	-15.776	O.3	1	L011	0.000	
20	 O3B	48.828	21.434	-15.239	O.co2	1	L011	0.000	
21	  C4	44.602	22.535	-8.770	C.2	1	L011	0.000	
22	  C5	45.510	21.988	-7.877	C.2	1	L011	0.000	
23	  C6	44.990	21.333	-6.742	C.2	1	L011	0.000	
24	  N6	45.752	20.767	-5.811	N.pl3	1	L011	0.000	
25	  N7	46.809	22.224	-8.309	N.2	1	L011	0.000	
26	  C8	46.670	22.878	-9.436	C.2	1	L011	0.000	
27	  N9	45.354	23.097	-9.777	N.2	1	L011	0.000	
@<TRIPOS>BOND
1 1 4 1
2 1 13 1
3 1 16 2
4 1 19 1
5 2 14 1
6 2 17 1
7 2 19 1
8 2 20 2
9 3 4 1
10 3 5 1
11 5 6 1
12 5 7 1
13 6 11 1
14 7 8 1
15 7 9 1
16 9 10 1
17 9 11 1
18 11 27 1
19 12 15 ar
20 12 23 ar
21 15 18 ar
22 18 21 ar
23 21 22 ar
24 21 27 ar
25 22 23 ar
26 22 25 ar
27 23 24 1
28 25 26 ar
29 26 27 ar
@<TRIPOS>SUBSTRUCTURE
1	L011	1	GROUP	1 Y	L01
