L05.****
  PyMOL2.5          3D                             0

230233  0  0  0  0  0  0  0  0999 V2000
   12.3443   -2.3788   -3.1725 C   0  0  0  1  0  0  0  0  0  0  0  0
   11.5667   -2.1060   -2.4900 H   0  0  0  1  0  0  0  0  0  0  0  0
   11.8001   -2.9571   -4.3237 O   0  0  0  1  0  0  0  0  0  0  0  0
   13.1017   -1.1285   -3.6470 C   0  0  0  1  0  0  0  0  0  0  0  0
   14.0998   -1.3720   -3.9461 H   0  0  0  1  0  0  0  0  0  0  0  0
   13.1400   -0.1305   -2.6258 O   0  0  0  1  0  0  0  0  0  0  0  0
   12.5006    0.5572   -2.8255 H   0  0  0  1  0  0  0  0  0  0  0  0
   12.2715   -0.6680   -4.8323 C   0  0  0  1  0  0  0  0  0  0  0  0
   11.4845   -0.0136   -4.5204 H   0  0  0  1  0  0  0  0  0  0  0  0
   13.0841   -0.0073   -5.8037 O   0  0  0  1  0  0  0  0  0  0  0  0
   13.3755   -0.6417   -6.4626 H   0  0  0  1  0  0  0  0  0  0  0  0
    9.2691   -2.0593   -4.6690 C   0  0  0  1  0  0  0  0  0  0  0  0
    9.2038   -3.1096   -4.4751 H   0  0  0  1  0  0  0  0  0  0  0  0
    9.6111   -1.5544   -3.7897 H   0  0  0  1  0  0  0  0  0  0  0  0
    7.9860   -1.5647   -5.0290 O   0  0  0  1  0  0  0  0  0  0  0  0
    7.3074   -2.1013   -4.6130 H   0  0  0  1  0  0  0  0  0  0  0  0
   10.2505   -1.8149   -5.8068 C   0  0  0  1  0  0  0  0  0  0  0  0
   10.1253   -0.8064   -6.1417 H   0  0  0  1  0  0  0  0  0  0  0  0
    9.8936   -2.7079   -6.8556 O   0  0  0  1  0  0  0  0  0  0  0  0
   11.7041   -1.9964   -5.3904 C   0  0  0  1  0  0  0  0  0  0  0  0
   12.2792   -2.3198   -6.2328 H   0  0  0  1  0  0  0  0  0  0  0  0
    8.9478   -2.2431   -7.7696 C   0  0  0  1  0  0  0  0  0  0  0  0
    8.3766   -1.4560   -7.3233 H   0  0  0  1  0  0  0  0  0  0  0  0
    9.5952   -1.7818   -8.9942 O   0  0  0  1  0  0  0  0  0  0  0  0
    8.0457   -3.3672   -8.2248 C   0  0  0  1  0  0  0  0  0  0  0  0
    7.0969   -2.9903   -8.5449 H   0  0  0  1  0  0  0  0  0  0  0  0
    7.8518   -4.3211   -7.1794 O   0  0  0  1  0  0  0  0  0  0  0  0
    6.9292   -4.3224   -6.9139 H   0  0  0  1  0  0  0  0  0  0  0  0
    8.8132   -3.9892   -9.3991 C   0  0  0  1  0  0  0  0  0  0  0  0
    8.1418   -4.3879  -10.1306 H   0  0  0  1  0  0  0  0  0  0  0  0
    9.6929   -5.0164   -8.9510 O   0  0  0  1  0  0  0  0  0  0  0  0
    9.2313   -5.8581   -8.9557 H   0  0  0  1  0  0  0  0  0  0  0  0
    7.5118   -1.8298  -10.9696 C   0  0  0  1  0  0  0  0  0  0  0  0
    7.5314   -1.0565  -10.2303 H   0  0  0  1  0  0  0  0  0  0  0  0
    7.1073   -1.4422  -11.8812 H   0  0  0  1  0  0  0  0  0  0  0  0
    6.6731   -2.8795  -10.5088 O   0  0  0  1  0  0  0  0  0  0  0  0
    5.8807   -2.5071  -10.1150 H   0  0  0  1  0  0  0  0  0  0  0  0
    8.9388   -2.2959  -11.2273 C   0  0  0  1  0  0  0  0  0  0  0  0
    9.5055   -1.4758  -11.6161 H   0  0  0  1  0  0  0  0  0  0  0  0
    8.9088   -3.3668  -12.1753 O   0  0  0  1  0  0  0  0  0  0  0  0
    9.7265   -3.3726  -12.6782 H   0  0  0  1  0  0  0  0  0  0  0  0
    9.5986   -2.7938   -9.9614 C   0  0  0  1  0  0  0  0  0  0  0  0
   10.6048   -3.0884  -10.1751 H   0  0  0  1  0  0  0  0  0  0  0  0
   13.2370   -3.2867   -2.5374 O   0  0  0  1  0  0  0  0  0  0  0  0
   20.1354  -10.6995   -5.3738 O   0  0  0  1  0  0  0  0  0  0  0  0
   20.9158   -9.3828   -5.8416 P   0  0  0  1  0  0  0  0  0  0  0  0
   20.7091   -8.3806   -4.5887 O   0  0  0  1  0  0  0  0  0  0  0  0
   20.2236   -8.7955   -7.0313 O   0  0  0  0  0  0  0  0  0  0  0  0
   22.3540   -9.7173   -5.8984 O   0  0  0  1  0  0  0  0  0  0  0  0
   20.7494   -8.8299   -3.0230 P   0  0  0  1  0  0  0  0  0  0  0  0
   20.8406   -7.3995   -2.3737 O   0  0  0  1  0  0  0  0  0  0  0  0
   21.9959   -9.6114   -2.7726 O   0  0  0  0  0  0  0  0  0  0  0  0
   19.4258   -9.3936   -2.6577 O   0  0  0  1  0  0  0  0  0  0  0  0
   18.7170  -10.7712   -5.5878 C   0  0  0  1  0  0  0  0  0  0  0  0
   18.4890  -11.6877   -6.0908 H   0  0  0  1  0  0  0  0  0  0  0  0
   18.4170   -9.9448   -6.1977 H   0  0  0  1  0  0  0  0  0  0  0  0
   17.9540  -10.7236   -4.2968 C   0  0  0  1  0  0  0  0  0  0  0  0
   18.3111  -11.3220   -3.5248 H   0  0  0  1  0  0  0  0  0  0  0  0
   16.8714   -9.9998   -4.0328 C   0  0  0  1  0  0  0  0  0  0  0  0
   15.9801  -10.2359   -2.8483 C   0  0  0  1  0  0  0  0  0  0  0  0
   16.1151   -9.4481   -2.1370 H   0  0  0  1  0  0  0  0  0  0  0  0
   16.2304  -11.1723   -2.3949 H   0  0  0  1  0  0  0  0  0  0  0  0
   14.9593  -10.2558   -3.1686 H   0  0  0  1  0  0  0  0  0  0  0  0
   16.4495   -8.8660   -4.9201 C   0  0  0  1  0  0  0  0  0  0  0  0
   17.3267   -8.4026   -5.3209 H   0  0  0  1  0  0  0  0  0  0  0  0
   15.9079   -8.1558   -4.3309 H   0  0  0  1  0  0  0  0  0  0  0  0
   15.5665   -9.3103   -6.0749 C   0  0  0  1  0  0  0  0  0  0  0  0
   14.7331   -9.8353   -5.6570 H   0  0  0  1  0  0  0  0  0  0  0  0
   16.1429   -9.9787   -6.6798 H   0  0  0  1  0  0  0  0  0  0  0  0
   15.0170   -8.2421   -6.9820 C   0  0  0  1  0  0  0  0  0  0  0  0
   14.4228   -7.5149   -6.5351 H   0  0  0  1  0  0  0  0  0  0  0  0
   15.2096   -8.1270   -8.2974 C   0  0  0  1  0  0  0  0  0  0  0  0
   14.8867   -6.8524   -9.0216 C   0  0  0  1  0  0  0  0  0  0  0  0
   14.5660   -6.1131   -8.3177 H   0  0  0  1  0  0  0  0  0  0  0  0
   14.1052   -7.0330   -9.7298 H   0  0  0  1  0  0  0  0  0  0  0  0
   15.7588   -6.5026   -9.5335 H   0  0  0  1  0  0  0  0  0  0  0  0
   15.7565   -9.2667   -9.1054 C   0  0  0  1  0  0  0  0  0  0  0  0
   16.1501   -9.9938   -8.4262 H   0  0  0  1  0  0  0  0  0  0  0  0
   16.5463   -8.8870   -9.7193 H   0  0  0  1  0  0  0  0  0  0  0  0
   14.7537   -9.9643  -10.0099 C   0  0  0  1  0  0  0  0  0  0  0  0
   14.1958   -9.2116  -10.5266 H   0  0  0  1  0  0  0  0  0  0  0  0
   14.0939  -10.5366   -9.3917 H   0  0  0  1  0  0  0  0  0  0  0  0
   15.3432  -10.8844  -11.0312 C   0  0  0  1  0  0  0  0  0  0  0  0
   16.0214  -10.4805  -11.7084 H   0  0  0  1  0  0  0  0  0  0  0  0
   15.0639  -12.1843  -11.1383 C   0  0  0  1  0  0  0  0  0  0  0  0
   14.2865  -12.8867  -10.0574 C   0  0  0  1  0  0  0  0  0  0  0  0
   14.1941  -12.2264   -9.2205 H   0  0  0  1  0  0  0  0  0  0  0  0
   14.8268  -13.7623   -9.7635 H   0  0  0  1  0  0  0  0  0  0  0  0
   15.5879  -12.9881  -12.2633 C   0  0  0  1  0  0  0  0  0  0  0  0
   16.2716  -12.3973  -12.8364 H   0  0  0  1  0  0  0  0  0  0  0  0
   14.7763  -13.2995  -12.8872 H   0  0  0  1  0  0  0  0  0  0  0  0
   16.0950  -13.8490  -11.8805 H   0  0  0  1  0  0  0  0  0  0  0  0
   12.8937  -13.3036  -10.5008 C   0  0  0  1  0  0  0  0  0  0  0  0
   12.4436  -13.8538   -9.7011 H   0  0  0  1  0  0  0  0  0  0  0  0
   12.9958  -13.9371  -11.3571 H   0  0  0  1  0  0  0  0  0  0  0  0
   11.9679  -12.1744  -10.8663 C   0  0  0  1  0  0  0  0  0  0  0  0
   11.8530  -11.4040  -10.1772 H   0  0  0  1  0  0  0  0  0  0  0  0
   11.2870  -12.0886  -12.0029 C   0  0  0  1  0  0  0  0  0  0  0  0
   11.5559  -13.0241  -13.1474 C   0  0  0  1  0  0  0  0  0  0  0  0
   10.7131  -13.6703  -13.2778 H   0  0  0  1  0  0  0  0  0  0  0  0
   12.4238  -13.6094  -12.9256 H   0  0  0  1  0  0  0  0  0  0  0  0
   10.2077  -11.0777  -12.2584 C   0  0  0  1  0  0  0  0  0  0  0  0
    9.2501  -11.5365  -12.1262 H   0  0  0  1  0  0  0  0  0  0  0  0
   10.2922  -10.7116  -13.2603 H   0  0  0  1  0  0  0  0  0  0  0  0
   10.3111  -10.2643  -11.5710 H   0  0  0  1  0  0  0  0  0  0  0  0
   11.7931  -12.2487  -14.4330 C   0  0  0  1  0  0  0  0  0  0  0  0
   12.7320  -11.7397  -14.3676 H   0  0  0  1  0  0  0  0  0  0  0  0
   11.0074  -11.5337  -14.5615 H   0  0  0  1  0  0  0  0  0  0  0  0
   11.8157  -13.1747  -15.6179 C   0  0  0  1  0  0  0  0  0  0  0  0
   12.5412  -13.9197  -15.6327 H   0  0  0  1  0  0  0  0  0  0  0  0
   10.9777  -13.1121  -16.6472 C   0  0  0  1  0  0  0  0  0  0  0  0
    9.6987  -12.3264  -16.6334 C   0  0  0  1  0  0  0  0  0  0  0  0
    9.7439  -11.5886  -17.4071 H   0  0  0  1  0  0  0  0  0  0  0  0
    9.6065  -11.8426  -15.6835 H   0  0  0  1  0  0  0  0  0  0  0  0
   11.2548  -13.8404  -17.9322 C   0  0  0  1  0  0  0  0  0  0  0  0
   10.4269  -14.4758  -18.1683 H   0  0  0  1  0  0  0  0  0  0  0  0
   12.1390  -14.4329  -17.8226 H   0  0  0  1  0  0  0  0  0  0  0  0
   11.3957  -13.1310  -18.7208 H   0  0  0  1  0  0  0  0  0  0  0  0
    8.4676  -13.1889  -16.8587 C   0  0  0  1  0  0  0  0  0  0  0  0
    8.4420  -13.9343  -16.0914 H   0  0  0  1  0  0  0  0  0  0  0  0
    8.5663  -13.6622  -17.8132 H   0  0  0  1  0  0  0  0  0  0  0  0
    7.1616  -12.4601  -16.8378 C   0  0  0  1  0  0  0  0  0  0  0  0
    6.9872  -11.7987  -17.6212 H   0  0  0  1  0  0  0  0  0  0  0  0
    6.1955  -12.5666  -15.9226 C   0  0  0  1  0  0  0  0  0  0  0  0
    6.1728  -13.7061  -14.9413 C   0  0  0  1  0  0  0  0  0  0  0  0
    6.7841  -14.4917  -15.3336 H   0  0  0  1  0  0  0  0  0  0  0  0
    5.1625  -14.0482  -14.8561 H   0  0  0  1  0  0  0  0  0  0  0  0
    5.1474  -11.4798  -15.7876 C   0  0  0  1  0  0  0  0  0  0  0  0
    5.2329  -11.0186  -14.8258 H   0  0  0  1  0  0  0  0  0  0  0  0
    4.1730  -11.9094  -15.8915 H   0  0  0  1  0  0  0  0  0  0  0  0
    5.2965  -10.7441  -16.5501 H   0  0  0  1  0  0  0  0  0  0  0  0
    6.6746  -13.3740  -13.5455 C   0  0  0  1  0  0  0  0  0  0  0  0
    5.9863  -12.6849  -13.1025 H   0  0  0  1  0  0  0  0  0  0  0  0
    7.6335  -12.9090  -13.6414 H   0  0  0  1  0  0  0  0  0  0  0  0
    6.8182  -14.5412  -12.6212 C   0  0  0  1  0  0  0  0  0  0  0  0
    7.5854  -15.2100  -12.8347 H   0  0  0  1  0  0  0  0  0  0  0  0
    6.0723  -14.8160  -11.5577 C   0  0  0  1  0  0  0  0  0  0  0  0
    4.9994  -13.8749  -11.0925 C   0  0  0  1  0  0  0  0  0  0  0  0
    4.0962  -14.4311  -10.9515 H   0  0  0  1  0  0  0  0  0  0  0  0
    4.8472  -13.1320  -11.8473 H   0  0  0  1  0  0  0  0  0  0  0  0
    6.2180  -16.0620  -10.7303 C   0  0  0  1  0  0  0  0  0  0  0  0
    5.2980  -16.6082  -10.7419 H   0  0  0  1  0  0  0  0  0  0  0  0
    6.4611  -15.7946   -9.7231 H   0  0  0  1  0  0  0  0  0  0  0  0
    6.9988  -16.6705  -11.1366 H   0  0  0  1  0  0  0  0  0  0  0  0
    5.3455  -13.1755   -9.7881 C   0  0  0  1  0  0  0  0  0  0  0  0
    4.5550  -13.3649   -9.0922 H   0  0  0  1  0  0  0  0  0  0  0  0
    5.4060  -12.1251   -9.9827 H   0  0  0  1  0  0  0  0  0  0  0  0
    6.6310  -13.6020   -9.1534 C   0  0  0  1  0  0  0  0  0  0  0  0
    7.4088  -13.8833   -9.7838 H   0  0  0  1  0  0  0  0  0  0  0  0
    6.8505  -13.6476   -7.8610 C   0  0  0  1  0  0  0  0  0  0  0  0
    5.7652  -13.5904   -6.8254 C   0  0  0  1  0  0  0  0  0  0  0  0
    5.8064  -14.4845   -6.2392 H   0  0  0  1  0  0  0  0  0  0  0  0
    4.8206  -13.5339   -7.3248 H   0  0  0  1  0  0  0  0  0  0  0  0
    8.2351  -13.8584   -7.3222 C   0  0  0  1  0  0  0  0  0  0  0  0
    8.4348  -14.9072   -7.2510 H   0  0  0  1  0  0  0  0  0  0  0  0
    8.3114  -13.4144   -6.3517 H   0  0  0  1  0  0  0  0  0  0  0  0
    8.9465  -13.4041   -7.9799 H   0  0  0  1  0  0  0  0  0  0  0  0
    5.8927  -12.3954   -5.8947 C   0  0  0  1  0  0  0  0  0  0  0  0
    5.8281  -11.5008   -6.4783 H   0  0  0  1  0  0  0  0  0  0  0  0
    6.8470  -12.4393   -5.4128 H   0  0  0  1  0  0  0  0  0  0  0  0
    4.8229  -12.3554   -4.8365 C   0  0  0  1  0  0  0  0  0  0  0  0
    4.2051  -13.1894   -4.7701 H   0  0  0  1  0  0  0  0  0  0  0  0
    4.5814  -11.3661   -3.9743 C   0  0  0  1  0  0  0  0  0  0  0  0
    3.2941  -11.3058   -3.1989 C   0  0  0  1  0  0  0  0  0  0  0  0
    2.5623  -11.8790   -3.7289 H   0  0  0  1  0  0  0  0  0  0  0  0
    2.9830  -10.2830   -3.1546 H   0  0  0  1  0  0  0  0  0  0  0  0
    5.5842  -10.2738   -3.7437 C   0  0  0  1  0  0  0  0  0  0  0  0
    5.8624  -10.3539   -2.7136 H   0  0  0  1  0  0  0  0  0  0  0  0
    5.1467   -9.3172   -3.9394 H   0  0  0  1  0  0  0  0  0  0  0  0
    6.4383  -10.4115   -4.3734 H   0  0  0  1  0  0  0  0  0  0  0  0
    3.3650  -11.8364   -1.7763 C   0  0  0  1  0  0  0  0  0  0  0  0
    4.0369  -11.2203   -1.2161 H   0  0  0  1  0  0  0  0  0  0  0  0
    3.7389  -12.8386   -1.8048 H   0  0  0  1  0  0  0  0  0  0  0  0
    2.0293  -11.8429   -1.0821 C   0  0  0  1  0  0  0  0  0  0  0  0
    1.5438  -10.9308   -0.9642 H   0  0  0  1  0  0  0  0  0  0  0  0
    1.4321  -12.9133   -0.6149 C   0  0  0  1  0  0  0  0  0  0  0  0
    0.0485  -12.8292   -0.0389 C   0  0  0  1  0  0  0  0  0  0  0  0
   -0.5345  -13.6557   -0.3881 H   0  0  0  1  0  0  0  0  0  0  0  0
   -0.4109  -11.9134   -0.3473 H   0  0  0  1  0  0  0  0  0  0  0  0
    0.1047  -12.8586    1.0292 H   0  0  0  1  0  0  0  0  0  0  0  0
    2.0900  -14.2687   -0.5239 C   0  0  0  1  0  0  0  0  0  0  0  0
    1.6364  -14.8943   -1.2640 H   0  0  0  1  0  0  0  0  0  0  0  0
    1.9374  -14.6847    0.4501 H   0  0  0  1  0  0  0  0  0  0  0  0
    3.1393  -14.1794   -0.7137 H   0  0  0  1  0  0  0  0  0  0  0  0
   15.9729   -5.1371   -1.4729 C   0  0  0  1  0  0  0  0  0  0  0  0
   16.0612   -5.6548   -0.5406 H   0  0  0  1  0  0  0  0  0  0  0  0
   14.8759   -5.7654   -2.2806 C   0  0  0  1  0  0  0  0  0  0  0  0
   15.1587   -6.7633   -2.5435 H   0  0  0  1  0  0  0  0  0  0  0  0
   15.7016   -3.7856   -1.2224 O   0  0  0  1  0  0  0  0  0  0  0  0
   14.6279   -4.9644   -3.5483 C   0  0  0  1  0  0  0  0  0  0  0  0
   13.7391   -5.3285   -4.0199 H   0  0  0  1  0  0  0  0  0  0  0  0
   15.6266   -3.0025   -2.4165 C   0  0  0  1  0  0  0  0  0  0  0  0
   16.5354   -3.1066   -2.9716 H   0  0  0  1  0  0  0  0  0  0  0  0
   14.4584   -3.4921   -3.2554 C   0  0  0  1  0  0  0  0  0  0  0  0
   14.4277   -2.9472   -4.1757 H   0  0  0  1  0  0  0  0  0  0  0  0
   17.1894   -5.2398   -2.1868 O   0  0  0  1  0  0  0  0  0  0  0  0
   13.6780   -5.7984   -1.5025 O   0  0  0  1  0  0  0  0  0  0  0  0
   13.3603   -4.9030   -1.3652 H   0  0  0  1  0  0  0  0  0  0  0  0
   15.7331   -5.1350   -4.4237 O   0  0  0  1  0  0  0  0  0  0  0  0
   15.4466   -5.5962   -5.2154 H   0  0  0  1  0  0  0  0  0  0  0  0
   15.4173   -1.5409   -2.0552 C   0  0  0  1  0  0  0  0  0  0  0  0
   15.4325   -0.9473   -2.9453 H   0  0  0  1  0  0  0  0  0  0  0  0
   16.1998   -1.2203   -1.3996 H   0  0  0  1  0  0  0  0  0  0  0  0
   14.4724   -1.4264   -1.5665 H   0  0  0  1  0  0  0  0  0  0  0  0
   19.8614   -6.4189   -2.6427 C   0  0  0  1  0  0  0  0  0  0  0  0
   19.0426   -6.8660   -3.1666 H   0  0  0  1  0  0  0  0  0  0  0  0
   19.3568   -5.8389   -1.3244 C   0  0  0  1  0  0  0  0  0  0  0  0
   20.1858   -5.4648   -0.7607 H   0  0  0  1  0  0  0  0  0  0  0  0
   20.4321   -5.3980   -3.4513 O   0  0  0  1  0  0  0  0  0  0  0  0
   18.3772   -4.7005   -1.6011 C   0  0  0  1  0  0  0  0  0  0  0  0
   18.1329   -4.2184   -0.6776 H   0  0  0  1  0  0  0  0  0  0  0  0
   19.4967   -4.3690   -3.8105 C   0  0  0  1  0  0  0  0  0  0  0  0
   19.9836   -3.6480   -4.4332 H   0  0  0  1  0  0  0  0  0  0  0  0
   18.9751   -3.6800   -2.5478 C   0  0  0  1  0  0  0  0  0  0  0  0
   18.2241   -2.9678   -2.8191 H   0  0  0  1  0  0  0  0  0  0  0  0
   18.6806   -6.8860   -0.5612 N   0  0  0  1  0  0  0  0  0  0  0  0
   17.8357   -7.2482   -0.9009 H   0  0  0  1  0  0  0  0  0  0  0  0
   20.0516   -3.0116   -1.8988 O   0  0  0  1  0  0  0  0  0  0  0  0
   19.9335   -2.0747   -2.0717 H   0  0  0  1  0  0  0  0  0  0  0  0
   18.3455   -4.9802   -4.5567 C   0  0  0  1  0  0  0  0  0  0  0  0
   17.5718   -4.2538   -4.6931 H   0  0  0  1  0  0  0  0  0  0  0  0
   17.9589   -5.8157   -4.0113 H   0  0  0  1  0  0  0  0  0  0  0  0
   18.8366   -5.4110   -5.8224 O   0  0  0  1  0  0  0  0  0  0  0  0
   18.1954   -6.0154   -6.2034 H   0  0  0  1  0  0  0  0  0  0  0  0
   19.1790   -7.3712    0.5949 C   0  0  0  1  0  0  0  0  0  0  0  0
   20.2430   -6.9594    1.0494 O   0  0  0  1  0  0  0  0  0  0  0  0
   18.3865   -8.4421    1.3190 C   0  0  0  1  0  0  0  0  0  0  0  0
   17.6591   -7.8983    1.8848 H   0  0  0  1  0  0  0  0  0  0  0  0
   19.0216   -9.0104    1.9660 H   0  0  0  1  0  0  0  0  0  0  0  0
   17.9099   -9.0976    0.6204 H   0  0  0  1  0  0  0  0  0  0  0  0
  1  2  1  0  0  0  0
  1  3  1  0  0  0  0
  1  4  1  0  0  0  0
  1 44  1  0  0  0  0
  3 20  1  0  0  0  0
  4  5  1  0  0  0  0
  4  6  1  0  0  0  0
  4  8  1  0  0  0  0
  6  7  1  0  0  0  0
  8  9  1  0  0  0  0
  8 10  1  0  0  0  0
  8 20  1  0  0  0  0
 10 11  1  0  0  0  0
 12 13  1  0  0  0  0
 12 14  1  0  0  0  0
 12 15  1  0  0  0  0
 12 17  1  0  0  0  0
 15 16  1  0  0  0  0
 17 18  1  0  0  0  0
 17 19  1  0  0  0  0
 17 20  1  0  0  0  0
 19 22  1  0  0  0  0
 20 21  1  0  0  0  0
 22 23  1  0  0  0  0
 22 24  1  0  0  0  0
 22 25  1  0  0  0  0
 24 42  1  0  0  0  0
 25 26  1  0  0  0  0
 25 27  1  0  0  0  0
 25 29  1  0  0  0  0
 27 28  1  0  0  0  0
 29 30  1  0  0  0  0
 29 31  1  0  0  0  0
 29 42  1  0  0  0  0
 31 32  1  0  0  0  0
 33 34  1  0  0  0  0
 33 35  1  0  0  0  0
 33 36  1  0  0  0  0
 33 38  1  0  0  0  0
 36 37  1  0  0  0  0
 38 39  1  0  0  0  0
 38 40  1  0  0  0  0
 38 42  1  0  0  0  0
 40 41  1  0  0  0  0
 42 43  1  0  0  0  0
 44194  1  0  0  0  0
 45 46  1  0  0  0  0
 45 54  1  0  0  0  0
 46 47  1  0  0  0  0
 46 48  1  0  0  0  0
 46 49  2  0  0  0  0
 47 50  1  0  0  0  0
 50 51  1  0  0  0  0
 50 52  1  0  0  0  0
 50 53  2  0  0  0  0
 51205  1  0  0  0  0
 54 55  1  0  0  0  0
 54 56  1  0  0  0  0
 54 57  1  0  0  0  0
 57 58  1  0  0  0  0
 57 59  2  0  0  0  0
 59 60  1  0  0  0  0
 59 64  1  0  0  0  0
 60 61  1  0  0  0  0
 60 62  1  0  0  0  0
 60 63  1  0  0  0  0
 64 65  1  0  0  0  0
 64 66  1  0  0  0  0
 64 67  1  0  0  0  0
 67 68  1  0  0  0  0
 67 69  1  0  0  0  0
 67 70  1  0  0  0  0
 70 71  1  0  0  0  0
 70 72  2  0  0  0  0
 72 73  1  0  0  0  0
 72 77  1  0  0  0  0
 73 74  1  0  0  0  0
 73 75  1  0  0  0  0
 73 76  1  0  0  0  0
 77 78  1  0  0  0  0
 77 79  1  0  0  0  0
 77 80  1  0  0  0  0
 80 81  1  0  0  0  0
 80 82  1  0  0  0  0
 80 83  1  0  0  0  0
 83 84  1  0  0  0  0
 83 85  2  0  0  0  0
 85 86  1  0  0  0  0
 85 89  1  0  0  0  0
 86 87  1  0  0  0  0
 86 88  1  0  0  0  0
 86 93  1  0  0  0  0
 89 90  1  0  0  0  0
 89 91  1  0  0  0  0
 89 92  1  0  0  0  0
 93 94  1  0  0  0  0
 93 95  1  0  0  0  0
 93 96  1  0  0  0  0
 96 97  1  0  0  0  0
 96 98  2  0  0  0  0
 98 99  1  0  0  0  0
 98102  1  0  0  0  0
 99100  1  0  0  0  0
 99101  1  0  0  0  0
 99106  1  0  0  0  0
102103  1  0  0  0  0
102104  1  0  0  0  0
102105  1  0  0  0  0
106107  1  0  0  0  0
106108  1  0  0  0  0
106109  1  0  0  0  0
109110  1  0  0  0  0
109111  2  0  0  0  0
111112  1  0  0  0  0
111115  1  0  0  0  0
112113  1  0  0  0  0
112114  1  0  0  0  0
112119  1  0  0  0  0
115116  1  0  0  0  0
115117  1  0  0  0  0
115118  1  0  0  0  0
119120  1  0  0  0  0
119121  1  0  0  0  0
119122  1  0  0  0  0
122123  1  0  0  0  0
122124  2  0  0  0  0
124125  1  0  0  0  0
124128  1  0  0  0  0
125126  1  0  0  0  0
125127  1  0  0  0  0
125132  1  0  0  0  0
128129  1  0  0  0  0
128130  1  0  0  0  0
128131  1  0  0  0  0
132133  1  0  0  0  0
132134  1  0  0  0  0
132135  1  0  0  0  0
135136  1  0  0  0  0
135137  2  0  0  0  0
137138  1  0  0  0  0
137141  1  0  0  0  0
138139  1  0  0  0  0
138140  1  0  0  0  0
138145  1  0  0  0  0
141142  1  0  0  0  0
141143  1  0  0  0  0
141144  1  0  0  0  0
145146  1  0  0  0  0
145147  1  0  0  0  0
145148  1  0  0  0  0
148149  1  0  0  0  0
148150  2  0  0  0  0
150151  1  0  0  0  0
150154  1  0  0  0  0
151152  1  0  0  0  0
151153  1  0  0  0  0
151158  1  0  0  0  0
154155  1  0  0  0  0
154156  1  0  0  0  0
154157  1  0  0  0  0
158159  1  0  0  0  0
158160  1  0  0  0  0
158161  1  0  0  0  0
161162  1  0  0  0  0
161163  2  0  0  0  0
163164  1  0  0  0  0
163167  1  0  0  0  0
164165  1  0  0  0  0
164166  1  0  0  0  0
164171  1  0  0  0  0
167168  1  0  0  0  0
167169  1  0  0  0  0
167170  1  0  0  0  0
171172  1  0  0  0  0
171173  1  0  0  0  0
171174  1  0  0  0  0
174175  1  0  0  0  0
174176  2  0  0  0  0
176177  1  0  0  0  0
176181  1  0  0  0  0
177178  1  0  0  0  0
177179  1  0  0  0  0
177180  1  0  0  0  0
181182  1  0  0  0  0
181183  1  0  0  0  0
181184  1  0  0  0  0
185186  1  0  0  0  0
185187  1  0  0  0  0
185189  1  0  0  0  0
185196  1  0  0  0  0
187188  1  0  0  0  0
187190  1  0  0  0  0
187197  1  0  0  0  0
189192  1  0  0  0  0
190191  1  0  0  0  0
190194  1  0  0  0  0
190199  1  0  0  0  0
192193  1  0  0  0  0
192194  1  0  0  0  0
192201  1  0  0  0  0
194195  1  0  0  0  0
196210  1  0  0  0  0
197198  1  0  0  0  0
199200  1  0  0  0  0
201202  1  0  0  0  0
201203  1  0  0  0  0
201204  1  0  0  0  0
205206  1  0  0  0  0
205207  1  0  0  0  0
205209  1  0  0  0  0
207208  1  0  0  0  0
207210  1  0  0  0  0
207216  1  0  0  0  0
209212  1  0  0  0  0
210211  1  0  0  0  0
210214  1  0  0  0  0
212213  1  0  0  0  0
212214  1  0  0  0  0
212220  1  0  0  0  0
214215  1  0  0  0  0
214218  1  0  0  0  0
216217  1  0  0  0  0
216225  1  0  0  0  0
218219  1  0  0  0  0
220221  1  0  0  0  0
220222  1  0  0  0  0
220223  1  0  0  0  0
223224  1  0  0  0  0
225226  2  0  0  0  0
225227  1  0  0  0  0
227228  1  0  0  0  0
227229  1  0  0  0  0
227230  1  0  0  0  0
M  BCL ATM C_TeTeTeTe H_S O_Te2Te2TeTe C_TeTeTeTe H_S O_Te2Te2TeTe H_S C_TeTeTeTe H_S O_Te2Te2TeTe H_S C_TeTeTeTe H_S H_S O_Te2Te2TeTe H_S C_TeTeTeTe H_S O_Te2Te2TeTe C_TeTeTeTe H_S C_TeTeTeTe H_S O_Te2Te2TeTe C_TeTeTeTe H_S O_Te2Te2TeTe H_S C_TeTeTeTe H_S O_Te2Te2TeTe H_S C_TeTeTeTe H_S H_S O_Te2Te2TeTe H_S C_TeTeTeTe H_S O_Te2Te2TeTe H_S C_TeTeTeTe H_S O_Te2Te2TeTe O_Tr2TrTrPi2 P_TeTeTeTePi O_Tr2TrTrPi2 O_Te2Te2TeTe O_Tr2Tr2TrPi P_TeTeTeTePi O_Tr2TrTrPi2 O_Te2Te2TeTe O_Tr2Tr2TrPi C_TeTeTeTe H_S H_S C_TrTrTrPi H_S C_TrTrTrPi C_TeTeTeTe H_S H_S H_S C_TeTeTeTe H_S H_S C_TeTeTeTe H_S H_S C_TrTrTrPi H_S C_TrTrTrPi C_TeTeTeTe H_S H_S H_S C_TeTeTeTe H_S H_S C_TeTeTeTe H_S H_S C_TrTrTrPi H_S C_TrTrTrPi C_TeTeTeTe H_S H_S C_TeTeTeTe H_S H_S H_S C_TeTeTeTe H_S H_S C_TrTrTrPi H_S C_TrTrTrPi C_TeTeTeTe H_S H_S C_TeTeTeTe H_S H_S H_S C_TeTeTeTe H_S H_S C_TrTrTrPi H_S C_TrTrTrPi C_TeTeTeTe H_S H_S C_TeTeTeTe H_S H_S H_S C_TeTeTeTe H_S H_S C_TrTrTrPi H_S C_TrTrTrPi C_TeTeTeTe H_S H_S C_TeTeTeTe H_S H_S H_S C_TeTeTeTe H_S H_S C_TrTrTrPi H_S C_TrTrTrPi C_TeTeTeTe H_S H_S C_TeTeTeTe H_S H_S H_S C_TeTeTeTe H_S H_S C_TrTrTrPi H_S C_TrTrTrPi C_TeTeTeTe H_S H_S C_TeTeTeTe H_S H_S H_S C_TeTeTeTe H_S H_S C_TrTrTrPi H_S C_TrTrTrPi C_TeTeTeTe H_S H_S C_TeTeTeTe H_S H_S H_S C_TeTeTeTe H_S H_S C_TrTrTrPi H_S C_TrTrTrPi C_TeTeTeTe H_S H_S H_S C_TeTeTeTe H_S H_S H_S C_TeTeTeTe H_S C_TeTeTeTe H_S O_Te2Te2TeTe C_TeTeTeTe H_S C_TeTeTeTe H_S C_TeTeTeTe H_S O_Te2Te2TeTe O_Te2Te2TeTe H_S O_Te2Te2TeTe H_S C_TeTeTeTe H_S H_S H_S C_TeTeTeTe H_S C_TeTeTeTe H_S O_Te2Te2TeTe C_TeTeTeTe H_S C_TeTeTeTe H_S C_TeTeTeTe H_S N_TrTrTrPi2 H_S O_Te2Te2TeTe H_S C_TeTeTeTe H_S H_S O_Te2Te2TeTe H_S C_TrTrTrPi O_Tr2Tr2TrPi C_TeTeTeTe H_S H_S H_S
M  BCL BND NonConjugatedSingleBond NonConjugatedSingleBondInRing NonConjugatedSingleBondInRing NonConjugatedSingleBond NonConjugatedSingleBondInRing NonConjugatedSingleBond NonConjugatedSingleBond NonConjugatedSingleBondInRing NonConjugatedSingleBond NonConjugatedSingleBond NonConjugatedSingleBond NonConjugatedSingleBondInRing NonConjugatedSingleBond NonConjugatedSingleBond NonConjugatedSingleBond NonConjugatedSingleBond NonConjugatedSingleBond NonConjugatedSingleBond NonConjugatedSingleBond NonConjugatedSingleBond NonConjugatedSingleBond NonConjugatedSingleBond NonConjugatedSingleBond NonConjugatedSingleBond NonConjugatedSingleBondInRing NonConjugatedSingleBondInRing NonConjugatedSingleBondInRing NonConjugatedSingleBond NonConjugatedSingleBond NonConjugatedSingleBondInRing NonConjugatedSingleBond NonConjugatedSingleBond NonConjugatedSingleBond NonConjugatedSingleBondInRing NonConjugatedSingleBond NonConjugatedSingleBond NonConjugatedSingleBond NonConjugatedSingleBond NonConjugatedSingleBond NonConjugatedSingleBond NonConjugatedSingleBond NonConjugatedSingleBond NonConjugatedSingleBond NonConjugatedSingleBond NonConjugatedSingleBond NonConjugatedSingleBond ConjugatedSingleBond NonConjugatedSingleBond ConjugatedSingleBond ConjugatedSingleBond ConjugatedDoubleBond ConjugatedSingleBond ConjugatedSingleBond ConjugatedSingleBond ConjugatedDoubleBond NonConjugatedSingleBond NonConjugatedSingleBond NonConjugatedSingleBond NonConjugatedSingleBond NonConjugatedSingleBond ConjugatedDoubleBond NonConjugatedSingleBond NonConjugatedSingleBond NonConjugatedSingleBond NonConjugatedSingleBond NonConjugatedSingleBond NonConjugatedSingleBond NonConjugatedSingleBond NonConjugatedSingleBond NonConjugatedSingleBond NonConjugatedSingleBond NonConjugatedSingleBond NonConjugatedSingleBond ConjugatedDoubleBond NonConjugatedSingleBond NonConjugatedSingleBond NonConjugatedSingleBond NonConjugatedSingleBond NonConjugatedSingleBond NonConjugatedSingleBond NonConjugatedSingleBond NonConjugatedSingleBond NonConjugatedSingleBond NonConjugatedSingleBond NonConjugatedSingleBond NonConjugatedSingleBond ConjugatedDoubleBond NonConjugatedSingleBond NonConjugatedSingleBond NonConjugatedSingleBond NonConjugatedSingleBond NonConjugatedSingleBond NonConjugatedSingleBond NonConjugatedSingleBond NonConjugatedSingleBond NonConjugatedSingleBond NonConjugatedSingleBond NonConjugatedSingleBond NonConjugatedSingleBond ConjugatedDoubleBond NonConjugatedSingleBond NonConjugatedSingleBond NonConjugatedSingleBond NonConjugatedSingleBond NonConjugatedSingleBond NonConjugatedSingleBond NonConjugatedSingleBond NonConjugatedSingleBond NonConjugatedSingleBond NonConjugatedSingleBond NonConjugatedSingleBond NonConjugatedSingleBond ConjugatedDoubleBond NonConjugatedSingleBond NonConjugatedSingleBond NonConjugatedSingleBond NonConjugatedSingleBond NonConjugatedSingleBond NonConjugatedSingleBond NonConjugatedSingleBond NonConjugatedSingleBond NonConjugatedSingleBond NonConjugatedSingleBond NonConjugatedSingleBond NonConjugatedSingleBond ConjugatedDoubleBond NonConjugatedSingleBond NonConjugatedSingleBond NonConjugatedSingleBond NonConjugatedSingleBond NonConjugatedSingleBond NonConjugatedSingleBond NonConjugatedSingleBond NonConjugatedSingleBond NonConjugatedSingleBond NonConjugatedSingleBond NonConjugatedSingleBond NonConjugatedSingleBond ConjugatedDoubleBond NonConjugatedSingleBond NonConjugatedSingleBond NonConjugatedSingleBond NonConjugatedSingleBond NonConjugatedSingleBond NonConjugatedSingleBond NonConjugatedSingleBond NonConjugatedSingleBond NonConjugatedSingleBond NonConjugatedSingleBond NonConjugatedSingleBond NonConjugatedSingleBond ConjugatedDoubleBond NonConjugatedSingleBond NonConjugatedSingleBond NonConjugatedSingleBond NonConjugatedSingleBond NonConjugatedSingleBond NonConjugatedSingleBond NonConjugatedSingleBond NonConjugatedSingleBond NonConjugatedSingleBond NonConjugatedSingleBond NonConjugatedSingleBond NonConjugatedSingleBond ConjugatedDoubleBond NonConjugatedSingleBond NonConjugatedSingleBond NonConjugatedSingleBond NonConjugatedSingleBond NonConjugatedSingleBond NonConjugatedSingleBond NonConjugatedSingleBond NonConjugatedSingleBond NonConjugatedSingleBond NonConjugatedSingleBond NonConjugatedSingleBond NonConjugatedSingleBond ConjugatedDoubleBond NonConjugatedSingleBond NonConjugatedSingleBond NonConjugatedSingleBond NonConjugatedSingleBond NonConjugatedSingleBond NonConjugatedSingleBond NonConjugatedSingleBond NonConjugatedSingleBond NonConjugatedSingleBond NonConjugatedSingleBondInRing NonConjugatedSingleBondInRing NonConjugatedSingleBond NonConjugatedSingleBond NonConjugatedSingleBondInRing NonConjugatedSingleBond NonConjugatedSingleBondInRing NonConjugatedSingleBond NonConjugatedSingleBondInRing NonConjugatedSingleBond NonConjugatedSingleBond NonConjugatedSingleBondInRing NonConjugatedSingleBond NonConjugatedSingleBond NonConjugatedSingleBond NonConjugatedSingleBond NonConjugatedSingleBond NonConjugatedSingleBond NonConjugatedSingleBond NonConjugatedSingleBond NonConjugatedSingleBond NonConjugatedSingleBondInRing NonConjugatedSingleBondInRing NonConjugatedSingleBond NonConjugatedSingleBondInRing NonConjugatedSingleBond NonConjugatedSingleBondInRing NonConjugatedSingleBond NonConjugatedSingleBondInRing NonConjugatedSingleBond NonConjugatedSingleBondInRing NonConjugatedSingleBond NonConjugatedSingleBond NonConjugatedSingleBond NonConjugatedSingleBond AmideSingleBond NonConjugatedSingleBond NonConjugatedSingleBond NonConjugatedSingleBond NonConjugatedSingleBond NonConjugatedSingleBond ConjugatedDoubleBond NonConjugatedSingleBond NonConjugatedSingleBond NonConjugatedSingleBond NonConjugatedSingleBond
M  BCL CHI   1   R   4   R   8   R  17   S  20   R  22   S  25   R  29   S  38   S  42   R  46   R  50   S 185   R 187   S 190   S 192   R 194   R 205   R 207   S 210   R 212   S 214   S
M  BCL DBI - - E E E E E E E E Z - -
M  END
> <ConfClashScore>
0.000387445 

> <ConfOneFourInteractionScore>
-0.969095 

> <ConfScore>
0.00733709 

> <ConfScorePBest>
0.0150985 

> <ConfTolerance>
2.72308 

$$$$
