# created with PyMOL 2.5.2
@<TRIPOS>MOLECULE
production
24 24 1                 
SMALL
USER_CHARGES
@<TRIPOS>ATOM
1	  C1	51.335	25.244	-23.016	C.3	1	GLC1	0.000	
2	  O1	50.440	24.477	-23.823	O.3	1	GLC1	0.000	
3	  C2	52.755	25.125	-23.575	C.3	1	GLC1	0.000	
4	  O2	52.771	25.564	-24.935	O.3	1	GLC1	0.000	
5	  C3	53.203	23.662	-23.504	C.3	1	GLC1	0.000	
6	  O3	54.555	23.553	-23.955	O.3	1	GLC1	0.000	
7	  C4	53.107	23.180	-22.053	C.3	1	GLC1	0.000	
8	  O4	53.454	21.795	-21.986	O.3	1	GLC1	0.000	
9	  C5	51.674	23.374	-21.553	C.3	1	GLC1	0.000	
10	  O5	51.310	24.750	-21.675	O.3	1	GLC1	0.000	
11	  C6	51.584	22.951	-20.086	C.3	1	GLC1	0.000	
12	  O6	50.224	23.021	-19.651	O.3	1	GLC1	0.000	
13	 HO1	49.520	24.506	-23.527	 H	1	GLC1	0.000	
14	 HO2	52.494	26.483	-25.055	 H	1	GLC1	0.000	
15	 HO3	54.690	23.848	-24.867	 H	1	GLC1	0.000	
16	 HO4	54.350	21.599	-22.293	 H	1	GLC1	0.000	
17	 HO6	50.092	22.766	-18.728	 H	1	GLC1	0.000	
18	  H1	51.028	26.290	-23.025	 H	1	GLC1	0.000	
19	  H2	53.433	25.743	-22.984	 H	1	GLC1	0.000	
20	  H3	52.556	23.052	-24.135	 H	1	GLC1	0.000	
21	  H4	53.791	23.759	-21.431	 H	1	GLC1	0.000	
22	  H5	50.994	22.764	-22.150	 H	1	GLC1	0.000	
23	 H61	51.946	21.929	-19.979	 H	1	GLC1	0.000	
24	 H62	52.194	23.618	-19.477	 H	1	GLC1	0.000	
@<TRIPOS>BOND
1 1 2 1
2 1 3 1
3 1 10 1
4 1 18 1
5 2 13 1
6 3 4 1
7 3 5 1
8 3 19 1
9 4 14 1
10 5 6 1
11 5 7 1
12 5 20 1
13 6 15 1
14 7 8 1
15 7 9 1
16 7 21 1
17 8 16 1
18 9 10 1
19 9 11 1
20 9 22 1
21 11 12 1
22 11 23 1
23 11 24 1
24 12 17 1
@<TRIPOS>SUBSTRUCTURE
1	GLC1	1	GROUP	1 Z	GLC
