# created with PyMOL 2.5.2
@<TRIPOS>MOLECULE
L05.****
230 233 1               
SMALL
USER_CHARGES
@<TRIPOS>ATOM
1	   C	12.344	-2.379	-3.172	C.3	1	UNK0	0.000	
2	   H	11.567	-2.106	-2.490	 H	1	UNK0	0.000	
3	   O	11.800	-2.957	-4.324	O.3	1	UNK0	0.000	
4	   C	13.102	-1.128	-3.647	C.3	1	UNK0	0.000	
5	   H	14.100	-1.372	-3.946	 H	1	UNK0	0.000	
6	   O	13.140	-0.131	-2.626	O.3	1	UNK0	0.000	
7	   H	12.501	0.557	-2.826	 H	1	UNK0	0.000	
8	   C	12.271	-0.668	-4.832	C.3	1	UNK0	0.000	
9	   H	11.484	-0.014	-4.520	 H	1	UNK0	0.000	
10	   O	13.084	-0.007	-5.804	O.3	1	UNK0	0.000	
11	   H	13.375	-0.642	-6.463	 H	1	UNK0	0.000	
12	   C	9.269	-2.059	-4.669	C.3	1	UNK0	0.000	
13	   H	9.204	-3.110	-4.475	 H	1	UNK0	0.000	
14	   H	9.611	-1.554	-3.790	 H	1	UNK0	0.000	
15	   O	7.986	-1.565	-5.029	O.3	1	UNK0	0.000	
16	   H	7.307	-2.101	-4.613	 H	1	UNK0	0.000	
17	   C	10.250	-1.815	-5.807	C.3	1	UNK0	0.000	
18	   H	10.125	-0.806	-6.142	 H	1	UNK0	0.000	
19	   O	9.894	-2.708	-6.856	O.3	1	UNK0	0.000	
20	   C	11.704	-1.996	-5.390	C.3	1	UNK0	0.000	
21	   H	12.279	-2.320	-6.233	 H	1	UNK0	0.000	
22	   C	8.948	-2.243	-7.770	C.3	1	UNK0	0.000	
23	   H	8.377	-1.456	-7.323	 H	1	UNK0	0.000	
24	   O	9.595	-1.782	-8.994	O.3	1	UNK0	0.000	
25	   C	8.046	-3.367	-8.225	C.3	1	UNK0	0.000	
26	   H	7.097	-2.990	-8.545	 H	1	UNK0	0.000	
27	   O	7.852	-4.321	-7.179	O.3	1	UNK0	0.000	
28	   H	6.929	-4.322	-6.914	 H	1	UNK0	0.000	
29	   C	8.813	-3.989	-9.399	C.3	1	UNK0	0.000	
30	   H	8.142	-4.388	-10.131	 H	1	UNK0	0.000	
31	   O	9.693	-5.016	-8.951	O.3	1	UNK0	0.000	
32	   H	9.231	-5.858	-8.956	 H	1	UNK0	0.000	
33	   C	7.512	-1.830	-10.970	C.3	1	UNK0	0.000	
34	   H	7.531	-1.056	-10.230	 H	1	UNK0	0.000	
35	   H	7.107	-1.442	-11.881	 H	1	UNK0	0.000	
36	   O	6.673	-2.879	-10.509	O.3	1	UNK0	0.000	
37	   H	5.881	-2.507	-10.115	 H	1	UNK0	0.000	
38	   C	8.939	-2.296	-11.227	C.3	1	UNK0	0.000	
39	   H	9.505	-1.476	-11.616	 H	1	UNK0	0.000	
40	   O	8.909	-3.367	-12.175	O.3	1	UNK0	0.000	
41	   H	9.726	-3.373	-12.678	 H	1	UNK0	0.000	
42	   C	9.599	-2.794	-9.961	C.3	1	UNK0	0.000	
43	   H	10.605	-3.088	-10.175	 H	1	UNK0	0.000	
44	   O	13.237	-3.287	-2.537	O.3	1	UNK0	0.000	
45	   O	20.135	-10.700	-5.374	O.3	1	UNK0	0.000	
46	   P	20.916	-9.383	-5.842	P.3	1	UNK0	0.000	
47	   O	20.709	-8.381	-4.589	O.3	1	UNK0	0.000	
48	   O	20.224	-8.795	-7.031	O.co2	1	UNK0	0.000	
49	   O	22.354	-9.717	-5.898	O.co2	1	UNK0	0.000	
50	   P	20.749	-8.830	-3.023	P.3	1	UNK0	0.000	
51	   O	20.841	-7.399	-2.374	O.3	1	UNK0	0.000	
52	   O	21.996	-9.611	-2.773	O.co2	1	UNK0	0.000	
53	   O	19.426	-9.394	-2.658	O.co2	1	UNK0	0.000	
54	   C	18.717	-10.771	-5.588	C.3	1	UNK0	0.000	
55	   H	18.489	-11.688	-6.091	 H	1	UNK0	0.000	
56	   H	18.417	-9.945	-6.198	 H	1	UNK0	0.000	
57	   C	17.954	-10.724	-4.297	C.2	1	UNK0	0.000	
58	   H	18.311	-11.322	-3.525	 H	1	UNK0	0.000	
59	   C	16.871	-10.000	-4.033	C.2	1	UNK0	0.000	
60	   C	15.980	-10.236	-2.848	C.3	1	UNK0	0.000	
61	   H	16.115	-9.448	-2.137	 H	1	UNK0	0.000	
62	   H	16.230	-11.172	-2.395	 H	1	UNK0	0.000	
63	   H	14.959	-10.256	-3.169	 H	1	UNK0	0.000	
64	   C	16.449	-8.866	-4.920	C.3	1	UNK0	0.000	
65	   H	17.327	-8.403	-5.321	 H	1	UNK0	0.000	
66	   H	15.908	-8.156	-4.331	 H	1	UNK0	0.000	
67	   C	15.566	-9.310	-6.075	C.3	1	UNK0	0.000	
68	   H	14.733	-9.835	-5.657	 H	1	UNK0	0.000	
69	   H	16.143	-9.979	-6.680	 H	1	UNK0	0.000	
70	   C	15.017	-8.242	-6.982	C.2	1	UNK0	0.000	
71	   H	14.423	-7.515	-6.535	 H	1	UNK0	0.000	
72	   C	15.210	-8.127	-8.297	C.2	1	UNK0	0.000	
73	   C	14.887	-6.852	-9.022	C.3	1	UNK0	0.000	
74	   H	14.566	-6.113	-8.318	 H	1	UNK0	0.000	
75	   H	14.105	-7.033	-9.730	 H	1	UNK0	0.000	
76	   H	15.759	-6.503	-9.533	 H	1	UNK0	0.000	
77	   C	15.757	-9.267	-9.105	C.3	1	UNK0	0.000	
78	   H	16.150	-9.994	-8.426	 H	1	UNK0	0.000	
79	   H	16.546	-8.887	-9.719	 H	1	UNK0	0.000	
80	   C	14.754	-9.964	-10.010	C.3	1	UNK0	0.000	
81	   H	14.196	-9.212	-10.527	 H	1	UNK0	0.000	
82	   H	14.094	-10.537	-9.392	 H	1	UNK0	0.000	
83	   C	15.343	-10.884	-11.031	C.2	1	UNK0	0.000	
84	   H	16.021	-10.481	-11.708	 H	1	UNK0	0.000	
85	   C	15.064	-12.184	-11.138	C.2	1	UNK0	0.000	
86	   C	14.286	-12.887	-10.057	C.3	1	UNK0	0.000	
87	   H	14.194	-12.226	-9.220	 H	1	UNK0	0.000	
88	   H	14.827	-13.762	-9.764	 H	1	UNK0	0.000	
89	   C	15.588	-12.988	-12.263	C.3	1	UNK0	0.000	
90	   H	16.272	-12.397	-12.836	 H	1	UNK0	0.000	
91	   H	14.776	-13.300	-12.887	 H	1	UNK0	0.000	
92	   H	16.095	-13.849	-11.880	 H	1	UNK0	0.000	
93	   C	12.894	-13.304	-10.501	C.3	1	UNK0	0.000	
94	   H	12.444	-13.854	-9.701	 H	1	UNK0	0.000	
95	   H	12.996	-13.937	-11.357	 H	1	UNK0	0.000	
96	   C	11.968	-12.174	-10.866	C.2	1	UNK0	0.000	
97	   H	11.853	-11.404	-10.177	 H	1	UNK0	0.000	
98	   C	11.287	-12.089	-12.003	C.2	1	UNK0	0.000	
99	   C	11.556	-13.024	-13.147	C.3	1	UNK0	0.000	
100	   H	10.713	-13.670	-13.278	 H	1	UNK0	0.000	
101	   H	12.424	-13.609	-12.926	 H	1	UNK0	0.000	
102	   C	10.208	-11.078	-12.258	C.3	1	UNK0	0.000	
103	   H	9.250	-11.536	-12.126	 H	1	UNK0	0.000	
104	   H	10.292	-10.712	-13.260	 H	1	UNK0	0.000	
105	   H	10.311	-10.264	-11.571	 H	1	UNK0	0.000	
106	   C	11.793	-12.249	-14.433	C.3	1	UNK0	0.000	
107	   H	12.732	-11.740	-14.368	 H	1	UNK0	0.000	
108	   H	11.007	-11.534	-14.561	 H	1	UNK0	0.000	
109	   C	11.816	-13.175	-15.618	C.2	1	UNK0	0.000	
110	   H	12.541	-13.920	-15.633	 H	1	UNK0	0.000	
111	   C	10.978	-13.112	-16.647	C.2	1	UNK0	0.000	
112	   C	9.699	-12.326	-16.633	C.3	1	UNK0	0.000	
113	   H	9.744	-11.589	-17.407	 H	1	UNK0	0.000	
114	   H	9.606	-11.843	-15.684	 H	1	UNK0	0.000	
115	   C	11.255	-13.840	-17.932	C.3	1	UNK0	0.000	
116	   H	10.427	-14.476	-18.168	 H	1	UNK0	0.000	
117	   H	12.139	-14.433	-17.823	 H	1	UNK0	0.000	
118	   H	11.396	-13.131	-18.721	 H	1	UNK0	0.000	
119	   C	8.468	-13.189	-16.859	C.3	1	UNK0	0.000	
120	   H	8.442	-13.934	-16.091	 H	1	UNK0	0.000	
121	   H	8.566	-13.662	-17.813	 H	1	UNK0	0.000	
122	   C	7.162	-12.460	-16.838	C.2	1	UNK0	0.000	
123	   H	6.987	-11.799	-17.621	 H	1	UNK0	0.000	
124	   C	6.195	-12.567	-15.923	C.2	1	UNK0	0.000	
125	   C	6.173	-13.706	-14.941	C.3	1	UNK0	0.000	
126	   H	6.784	-14.492	-15.334	 H	1	UNK0	0.000	
127	   H	5.162	-14.048	-14.856	 H	1	UNK0	0.000	
128	   C	5.147	-11.480	-15.788	C.3	1	UNK0	0.000	
129	   H	5.233	-11.019	-14.826	 H	1	UNK0	0.000	
130	   H	4.173	-11.909	-15.892	 H	1	UNK0	0.000	
131	   H	5.297	-10.744	-16.550	 H	1	UNK0	0.000	
132	   C	6.675	-13.374	-13.545	C.3	1	UNK0	0.000	
133	   H	5.986	-12.685	-13.102	 H	1	UNK0	0.000	
134	   H	7.634	-12.909	-13.641	 H	1	UNK0	0.000	
135	   C	6.818	-14.541	-12.621	C.2	1	UNK0	0.000	
136	   H	7.585	-15.210	-12.835	 H	1	UNK0	0.000	
137	   C	6.072	-14.816	-11.558	C.2	1	UNK0	0.000	
138	   C	4.999	-13.875	-11.092	C.3	1	UNK0	0.000	
139	   H	4.096	-14.431	-10.951	 H	1	UNK0	0.000	
140	   H	4.847	-13.132	-11.847	 H	1	UNK0	0.000	
141	   C	6.218	-16.062	-10.730	C.3	1	UNK0	0.000	
142	   H	5.298	-16.608	-10.742	 H	1	UNK0	0.000	
143	   H	6.461	-15.795	-9.723	 H	1	UNK0	0.000	
144	   H	6.999	-16.670	-11.137	 H	1	UNK0	0.000	
145	   C	5.345	-13.175	-9.788	C.3	1	UNK0	0.000	
146	   H	4.555	-13.365	-9.092	 H	1	UNK0	0.000	
147	   H	5.406	-12.125	-9.983	 H	1	UNK0	0.000	
148	   C	6.631	-13.602	-9.153	C.2	1	UNK0	0.000	
149	   H	7.409	-13.883	-9.784	 H	1	UNK0	0.000	
150	   C	6.851	-13.648	-7.861	C.2	1	UNK0	0.000	
151	   C	5.765	-13.590	-6.825	C.3	1	UNK0	0.000	
152	   H	5.806	-14.484	-6.239	 H	1	UNK0	0.000	
153	   H	4.821	-13.534	-7.325	 H	1	UNK0	0.000	
154	   C	8.235	-13.858	-7.322	C.3	1	UNK0	0.000	
155	   H	8.435	-14.907	-7.251	 H	1	UNK0	0.000	
156	   H	8.311	-13.414	-6.352	 H	1	UNK0	0.000	
157	   H	8.946	-13.404	-7.980	 H	1	UNK0	0.000	
158	   C	5.893	-12.395	-5.895	C.3	1	UNK0	0.000	
159	   H	5.828	-11.501	-6.478	 H	1	UNK0	0.000	
160	   H	6.847	-12.439	-5.413	 H	1	UNK0	0.000	
161	   C	4.823	-12.355	-4.837	C.2	1	UNK0	0.000	
162	   H	4.205	-13.189	-4.770	 H	1	UNK0	0.000	
163	   C	4.581	-11.366	-3.974	C.2	1	UNK0	0.000	
164	   C	3.294	-11.306	-3.199	C.3	1	UNK0	0.000	
165	   H	2.562	-11.879	-3.729	 H	1	UNK0	0.000	
166	   H	2.983	-10.283	-3.155	 H	1	UNK0	0.000	
167	   C	5.584	-10.274	-3.744	C.3	1	UNK0	0.000	
168	   H	5.862	-10.354	-2.714	 H	1	UNK0	0.000	
169	   H	5.147	-9.317	-3.939	 H	1	UNK0	0.000	
170	   H	6.438	-10.411	-4.373	 H	1	UNK0	0.000	
171	   C	3.365	-11.836	-1.776	C.3	1	UNK0	0.000	
172	   H	4.037	-11.220	-1.216	 H	1	UNK0	0.000	
173	   H	3.739	-12.839	-1.805	 H	1	UNK0	0.000	
174	   C	2.029	-11.843	-1.082	C.2	1	UNK0	0.000	
175	   H	1.544	-10.931	-0.964	 H	1	UNK0	0.000	
176	   C	1.432	-12.913	-0.615	C.2	1	UNK0	0.000	
177	   C	0.049	-12.829	-0.039	C.3	1	UNK0	0.000	
178	   H	-0.535	-13.656	-0.388	 H	1	UNK0	0.000	
179	   H	-0.411	-11.913	-0.347	 H	1	UNK0	0.000	
180	   H	0.105	-12.859	1.029	 H	1	UNK0	0.000	
181	   C	2.090	-14.269	-0.524	C.3	1	UNK0	0.000	
182	   H	1.636	-14.894	-1.264	 H	1	UNK0	0.000	
183	   H	1.937	-14.685	0.450	 H	1	UNK0	0.000	
184	   H	3.139	-14.179	-0.714	 H	1	UNK0	0.000	
185	   C	15.973	-5.137	-1.473	C.3	1	UNK0	0.000	
186	   H	16.061	-5.655	-0.541	 H	1	UNK0	0.000	
187	   C	14.876	-5.765	-2.281	C.3	1	UNK0	0.000	
188	   H	15.159	-6.763	-2.543	 H	1	UNK0	0.000	
189	   O	15.702	-3.786	-1.222	O.3	1	UNK0	0.000	
190	   C	14.628	-4.964	-3.548	C.3	1	UNK0	0.000	
191	   H	13.739	-5.328	-4.020	 H	1	UNK0	0.000	
192	   C	15.627	-3.003	-2.417	C.3	1	UNK0	0.000	
193	   H	16.535	-3.107	-2.972	 H	1	UNK0	0.000	
194	   C	14.458	-3.492	-3.255	C.3	1	UNK0	0.000	
195	   H	14.428	-2.947	-4.176	 H	1	UNK0	0.000	
196	   O	17.189	-5.240	-2.187	O.3	1	UNK0	0.000	
197	   O	13.678	-5.798	-1.503	O.3	1	UNK0	0.000	
198	   H	13.360	-4.903	-1.365	 H	1	UNK0	0.000	
199	   O	15.733	-5.135	-4.424	O.3	1	UNK0	0.000	
200	   H	15.447	-5.596	-5.215	 H	1	UNK0	0.000	
201	   C	15.417	-1.541	-2.055	C.3	1	UNK0	0.000	
202	   H	15.432	-0.947	-2.945	 H	1	UNK0	0.000	
203	   H	16.200	-1.220	-1.400	 H	1	UNK0	0.000	
204	   H	14.472	-1.426	-1.566	 H	1	UNK0	0.000	
205	   C	19.861	-6.419	-2.643	C.3	1	UNK0	0.000	
206	   H	19.043	-6.866	-3.167	 H	1	UNK0	0.000	
207	   C	19.357	-5.839	-1.324	C.3	1	UNK0	0.000	
208	   H	20.186	-5.465	-0.761	 H	1	UNK0	0.000	
209	   O	20.432	-5.398	-3.451	O.3	1	UNK0	0.000	
210	   C	18.377	-4.701	-1.601	C.3	1	UNK0	0.000	
211	   H	18.133	-4.218	-0.678	 H	1	UNK0	0.000	
212	   C	19.497	-4.369	-3.810	C.3	1	UNK0	0.000	
213	   H	19.984	-3.648	-4.433	 H	1	UNK0	0.000	
214	   C	18.975	-3.680	-2.548	C.3	1	UNK0	0.000	
215	   H	18.224	-2.968	-2.819	 H	1	UNK0	0.000	
216	   N	18.681	-6.886	-0.561	N.pl3	1	UNK0	0.000	
217	   H	17.836	-7.248	-0.901	 H	1	UNK0	0.000	
218	   O	20.052	-3.012	-1.899	O.3	1	UNK0	0.000	
219	   H	19.934	-2.075	-2.072	 H	1	UNK0	0.000	
220	   C	18.346	-4.980	-4.557	C.3	1	UNK0	0.000	
221	   H	17.572	-4.254	-4.693	 H	1	UNK0	0.000	
222	   H	17.959	-5.816	-4.011	 H	1	UNK0	0.000	
223	   O	18.837	-5.411	-5.822	O.3	1	UNK0	0.000	
224	   H	18.195	-6.015	-6.203	 H	1	UNK0	0.000	
225	   C	19.179	-7.371	0.595	C.2	1	UNK0	0.000	
226	   O	20.243	-6.959	1.049	O.2	1	UNK0	0.000	
227	   C	18.386	-8.442	1.319	C.3	1	UNK0	0.000	
228	   H	17.659	-7.898	1.885	 H	1	UNK0	0.000	
229	   H	19.022	-9.010	1.966	 H	1	UNK0	0.000	
230	   H	17.910	-9.098	0.620	 H	1	UNK0	0.000	
@<TRIPOS>BOND
1 1 2 1
2 1 3 1
3 1 4 1
4 1 44 1
5 3 20 1
6 4 5 1
7 4 6 1
8 4 8 1
9 6 7 1
10 8 9 1
11 8 10 1
12 8 20 1
13 10 11 1
14 12 13 1
15 12 14 1
16 12 15 1
17 12 17 1
18 15 16 1
19 17 18 1
20 17 19 1
21 17 20 1
22 19 22 1
23 20 21 1
24 22 23 1
25 22 24 1
26 22 25 1
27 24 42 1
28 25 26 1
29 25 27 1
30 25 29 1
31 27 28 1
32 29 30 1
33 29 31 1
34 29 42 1
35 31 32 1
36 33 34 1
37 33 35 1
38 33 36 1
39 33 38 1
40 36 37 1
41 38 39 1
42 38 40 1
43 38 42 1
44 40 41 1
45 42 43 1
46 44 194 1
47 45 46 1
48 45 54 1
49 46 47 1
50 46 48 1
51 46 49 2
52 47 50 1
53 50 51 1
54 50 52 1
55 50 53 2
56 51 205 1
57 54 55 1
58 54 56 1
59 54 57 1
60 57 58 1
61 57 59 2
62 59 60 1
63 59 64 1
64 60 61 1
65 60 62 1
66 60 63 1
67 64 65 1
68 64 66 1
69 64 67 1
70 67 68 1
71 67 69 1
72 67 70 1
73 70 71 1
74 70 72 2
75 72 73 1
76 72 77 1
77 73 74 1
78 73 75 1
79 73 76 1
80 77 78 1
81 77 79 1
82 77 80 1
83 80 81 1
84 80 82 1
85 80 83 1
86 83 84 1
87 83 85 2
88 85 86 1
89 85 89 1
90 86 87 1
91 86 88 1
92 86 93 1
93 89 90 1
94 89 91 1
95 89 92 1
96 93 94 1
97 93 95 1
98 93 96 1
99 96 97 1
100 96 98 2
101 98 99 1
102 98 102 1
103 99 100 1
104 99 101 1
105 99 106 1
106 102 103 1
107 102 104 1
108 102 105 1
109 106 107 1
110 106 108 1
111 106 109 1
112 109 110 1
113 109 111 2
114 111 112 1
115 111 115 1
116 112 113 1
117 112 114 1
118 112 119 1
119 115 116 1
120 115 117 1
121 115 118 1
122 119 120 1
123 119 121 1
124 119 122 1
125 122 123 1
126 122 124 2
127 124 125 1
128 124 128 1
129 125 126 1
130 125 127 1
131 125 132 1
132 128 129 1
133 128 130 1
134 128 131 1
135 132 133 1
136 132 134 1
137 132 135 1
138 135 136 1
139 135 137 2
140 137 138 1
141 137 141 1
142 138 139 1
143 138 140 1
144 138 145 1
145 141 142 1
146 141 143 1
147 141 144 1
148 145 146 1
149 145 147 1
150 145 148 1
151 148 149 1
152 148 150 2
153 150 151 1
154 150 154 1
155 151 152 1
156 151 153 1
157 151 158 1
158 154 155 1
159 154 156 1
160 154 157 1
161 158 159 1
162 158 160 1
163 158 161 1
164 161 162 1
165 161 163 2
166 163 164 1
167 163 167 1
168 164 165 1
169 164 166 1
170 164 171 1
171 167 168 1
172 167 169 1
173 167 170 1
174 171 172 1
175 171 173 1
176 171 174 1
177 174 175 1
178 174 176 2
179 176 177 1
180 176 181 1
181 177 178 1
182 177 179 1
183 177 180 1
184 181 182 1
185 181 183 1
186 181 184 1
187 185 186 1
188 185 187 1
189 185 189 1
190 185 196 1
191 187 188 1
192 187 190 1
193 187 197 1
194 189 192 1
195 190 191 1
196 190 194 1
197 190 199 1
198 192 193 1
199 192 194 1
200 192 201 1
201 194 195 1
202 196 210 1
203 197 198 1
204 199 200 1
205 201 202 1
206 201 203 1
207 201 204 1
208 205 206 1
209 205 207 1
210 205 209 1
211 207 208 1
212 207 210 1
213 207 216 1
214 209 212 1
215 210 211 1
216 210 214 1
217 212 213 1
218 212 214 1
219 212 220 1
220 214 215 1
221 214 218 1
222 216 217 1
223 216 225 1
224 218 219 1
225 220 221 1
226 220 222 1
227 220 223 1
228 223 224 1
229 225 226 2
230 225 227 1
231 227 228 1
232 227 229 1
233 227 230 1
@<TRIPOS>SUBSTRUCTURE
1	UNK0	1	GROUP	1 ****	UNK
