# created with PyMOL 2.4.0
@<TRIPOS>MOLECULE
production
43 45 1                 
SMALL
USER_CHARGES
@<TRIPOS>ATOM
1	  P1	66.720	30.735	58.560	P.3	1	L011	0.000	
2	  P2	68.402	32.973	59.266	P.3	1	L011	0.000	
3	  P3	66.795	35.108	60.476	P.3	1	L011	0.000	
4	  C1	67.706	37.150	61.857	C.3	1	L011	0.000	
5	  N1	65.507	41.300	62.246	N.2	1	L011	0.000	
6	  O1	65.615	30.783	59.584	O.co2	1	L011	0.000	
7	  C2	67.854	38.644	61.685	C.3	1	L011	0.000	
8	  N2	63.332	41.548	62.762	N.2	1	L011	0.000	
9	  O2	66.130	30.415	57.150	O.co2	1	L011	0.000	
10	  C3	68.466	39.278	62.952	C.3	1	L011	0.000	
11	  N3	62.085	44.304	62.808	N.pl3	1	L011	0.000	
12	  O3	67.855	29.788	58.804	O.co2	1	L011	0.000	
13	  C4	67.740	40.638	63.081	C.3	1	L011	0.000	
14	  N4	64.241	45.106	62.223	N.2	1	L011	0.000	
15	  O4	68.512	32.376	60.619	O.co2	1	L011	0.000	
16	  C5	66.772	40.658	61.879	C.3	1	L011	0.000	
17	  N5	66.110	43.626	61.891	N.2	1	L011	0.000	
18	  O5	69.601	33.039	58.428	O.co2	1	L011	0.000	
19	  C6	64.326	40.719	62.593	C.2	1	L011	0.000	
20	  O6	67.271	32.237	58.396	O.3	1	L011	0.000	
21	  C7	63.900	42.789	62.517	C.2	1	L011	0.000	
22	  O7	67.018	34.533	61.812	O.co2	1	L011	0.000	
23	  C8	63.416	44.093	62.512	C.2	1	L011	0.000	
24	  O8	65.463	35.029	59.843	O.co2	1	L011	0.000	
25	  C9	65.518	44.813	61.933	C.2	1	L011	0.000	
26	  O9	67.782	34.446	59.403	O.3	1	L011	0.000	
27	 C10	65.257	42.647	62.195	C.2	1	L011	0.000	
28	 O10	67.278	36.603	60.588	O.3	1	L011	0.000	
29	 O11	66.559	39.270	61.548	O.3	1	L011	0.000	
30	 O12	69.869	39.467	62.794	O.3	1	L011	0.000	
31	 O13	68.670	41.719	63.004	O.3	1	L011	0.000	
32	  H1	68.644	36.721	62.141	 H	1	L011	0.000	
33	  H2	66.975	36.941	62.610	 H	1	L011	0.000	
34	  H3	68.462	38.846	60.829	 H	1	L011	0.000	
35	  H4	68.283	38.666	63.811	 H	1	L011	0.000	
36	  H5	70.260	39.687	63.643	 H	1	L011	0.000	
37	  H6	67.202	40.695	64.004	 H	1	L011	0.000	
38	  H7	69.395	41.564	63.613	 H	1	L011	0.000	
39	  H8	67.209	41.179	61.052	 H	1	L011	0.000	
40	  H9	64.223	39.691	62.712	 H	1	L011	0.000	
41	 H10	61.723	45.215	62.815	 H	1	L011	0.000	
42	 H11	61.502	43.543	63.012	 H	1	L011	0.000	
43	 H12	66.126	45.627	61.710	 H	1	L011	0.000	
@<TRIPOS>BOND
1 1 6 1
2 1 9 1
3 1 12 2
4 1 20 1
5 2 15 1
6 2 18 2
7 2 20 1
8 2 26 1
9 3 22 1
10 3 24 2
11 3 26 1
12 3 28 1
13 4 7 1
14 4 28 1
15 4 32 1
16 4 33 1
17 5 16 1
18 5 19 ar
19 5 27 ar
20 7 10 1
21 7 29 1
22 7 34 1
23 8 19 ar
24 8 21 ar
25 10 13 1
26 10 30 1
27 10 35 1
28 11 23 1
29 11 41 1
30 11 42 1
31 13 16 1
32 13 31 1
33 13 37 1
34 14 23 ar
35 14 25 ar
36 16 29 1
37 16 39 1
38 17 25 ar
39 17 27 ar
40 19 40 1
41 21 23 ar
42 21 27 ar
43 25 43 1
44 30 36 1
45 31 38 1
@<TRIPOS>SUBSTRUCTURE
1	L011	1	GROUP	1 Y	L01
