# created with PyMOL 2.4.0
@<TRIPOS>MOLECULE
ATP.****
31 33 1                 
SMALL
USER_CHARGES
@<TRIPOS>ATOM
1	   P	1.200	-0.226	-6.850	P.3	1	UNK0	0.000	
2	   O	1.740	1.140	-6.672	O.co2	1	UNK0	0.000	
3	   O	2.123	-1.036	-7.891	O.co2	1	UNK0	0.000	
4	   O	-0.302	-0.139	-7.421	O.co2	1	UNK0	0.000	
5	   P	0.255	-0.130	-4.446	P.3	1	UNK0	0.000	
6	   O	0.810	1.234	-4.304	O.co2	1	UNK0	0.000	
7	   O	-1.231	-0.044	-5.057	O.co2	1	UNK0	0.000	
8	   O	1.192	-0.990	-5.433	O.3	1	UNK0	0.000	
9	   P	-0.745	0.068	-2.071	P.3	1	UNK0	0.000	
10	   O	-2.097	0.143	-2.669	O.co2	1	UNK0	0.000	
11	   O	-0.125	1.549	-1.957	O.co2	1	UNK0	0.000	
12	   O	0.203	-0.840	-3.002	O.3	1	UNK0	0.000	
13	   O	-0.844	-0.587	-0.604	O.3	1	UNK0	0.000	
14	   C	-1.694	0.260	0.170	C.3	1	UNK0	0.000	
15	   C	-1.831	-0.309	1.584	C.3	1	UNK0	0.000	
16	   O	-0.542	-0.355	2.234	O.3	1	UNK0	0.000	
17	   C	-2.683	0.630	2.465	C.3	1	UNK0	0.000	
18	   O	-4.033	0.165	2.534	O.3	1	UNK0	0.000	
19	   C	-2.011	0.555	3.856	C.3	1	UNK0	0.000	
20	   O	-2.926	0.043	4.827	O.3	1	UNK0	0.000	
21	   C	-0.830	-0.418	3.647	C.3	1	UNK0	0.000	
22	   N	0.332	0.015	4.425	N.pl3	1	UNK0	0.000	
23	   C	1.302	0.879	4.012	C.2	1	UNK0	0.000	
24	   N	2.184	1.042	4.955	N.2	1	UNK0	0.000	
25	   C	1.833	0.300	6.033	C.2	1	UNK0	0.000	
26	   C	2.391	0.077	7.303	C.2	1	UNK0	0.000	
27	   N	3.564	0.706	7.681	N.pl3	1	UNK0	0.000	
28	   N	1.763	-0.747	8.135	N.2	1	UNK0	0.000	
29	   C	0.644	-1.352	7.783	C.2	1	UNK0	0.000	
30	   N	0.088	-1.178	6.602	N.2	1	UNK0	0.000	
31	   C	0.644	-0.371	5.704	C.2	1	UNK0	0.000	
@<TRIPOS>BOND
1 1 2 1
2 1 3 1
3 1 4 2
4 1 8 1
5 5 6 1
6 5 7 2
7 5 8 1
8 5 12 1
9 9 10 2
10 9 11 1
11 9 12 1
12 9 13 1
13 13 14 1
14 14 15 1
15 15 16 1
16 15 17 1
17 16 21 1
18 17 18 1
19 17 19 1
20 19 20 1
21 19 21 1
22 21 22 1
23 22 23 1
24 22 31 1
25 23 24 2
26 24 25 1
27 25 26 1
28 25 31 2
29 26 27 1
30 26 28 2
31 28 29 1
32 29 30 2
33 30 31 1
@<TRIPOS>SUBSTRUCTURE
1	UNK0	1	GROUP	1 ****	UNK
