# created with PyMOL 2.4.0
@<TRIPOS>MOLECULE
production
19 21 1                 
SMALL
USER_CHARGES
@<TRIPOS>ATOM
1	  C1	59.941	32.780	53.722	C.3	1	L021	0.000	
2	  N1	60.778	24.888	50.290	N.2	1	L021	0.000	
3	  O1	61.097	32.405	54.464	O.3	1	L021	0.000	
4	  C2	59.959	31.814	52.545	C.3	1	L021	0.000	
5	  N2	60.827	27.306	50.356	N.2	1	L021	0.000	
6	  O2	59.964	30.424	53.005	O.3	1	L021	0.000	
7	  C3	58.652	31.898	51.749	C.3	1	L021	0.000	
8	  N3	59.497	23.570	51.708	N.pl3	1	L021	0.000	
9	  O3	58.944	32.673	50.578	O.3	1	L021	0.000	
10	  C4	58.295	30.446	51.367	C.3	1	L021	0.000	
11	  N4	58.532	26.289	52.951	N.2	1	L021	0.000	
12	  O4	57.972	30.274	49.983	O.3	1	L021	0.000	
13	  C5	59.534	29.682	51.872	C.3	1	L021	0.000	
14	  N5	59.355	28.229	52.068	N.2	1	L021	0.000	
15	  C6	61.186	26.099	49.886	C.2	1	L021	0.000	
16	  C7	59.944	27.190	51.367	C.2	1	L021	0.000	
17	  C8	59.430	26.010	51.907	C.2	1	L021	0.000	
18	  C9	59.894	24.782	51.310	C.2	1	L021	0.000	
19	 C10	58.523	27.601	53.007	C.2	1	L021	0.000	
@<TRIPOS>BOND
1 1 3 1
2 1 4 1
3 2 15 ar
4 2 18 ar
5 4 6 1
6 4 7 1
7 5 16 ar
8 6 13 1
9 7 9 1
10 7 10 1
11 10 12 1
12 10 13 1
13 11 19 ar
14 13 14 1
15 5 15 ar
16 14 16 ar
17 16 17 ar
18 11 17 ar
19 17 18 ar
20 8 18 1
21 14 19 ar
@<TRIPOS>SUBSTRUCTURE
1	L021	1	GROUP	1 Z	L02
