# created with PyMOL 2.5.2
@<TRIPOS>MOLECULE
test
19 21 1                 
SMALL
USER_CHARGES
@<TRIPOS>ATOM
1	 C5'	59.941	32.780	53.722	C.3	1	L021	0.000	
2	 O5'	61.097	32.405	54.464	O.3	1	L021	0.000	
3	 C4'	59.959	31.814	52.545	C.3	1	L021	0.000	
4	 O4'	59.964	30.424	53.005	O.3	1	L021	0.000	
5	 C3'	58.652	31.898	51.749	C.3	1	L021	0.000	
6	 O3'	58.944	32.673	50.578	O.3	1	L021	0.000	
7	 C2'	58.295	30.446	51.367	C.3	1	L021	0.000	
8	 O2'	57.972	30.274	49.983	O.3	1	L021	0.000	
9	 C1'	59.534	29.682	51.872	C.3	1	L021	0.000	
10	  N1	60.778	24.888	50.290	N.2	1	L021	0.000	
11	  C2	61.186	26.099	49.886	C.2	1	L021	0.000	
12	  N3	60.827	27.306	50.356	N.2	1	L021	0.000	
13	  C4	59.944	27.190	51.367	C.2	1	L021	0.000	
14	  C5	59.430	26.010	51.907	C.2	1	L021	0.000	
15	  C6	59.894	24.782	51.310	C.2	1	L021	0.000	
16	  N6	59.497	23.570	51.708	N.pl3	1	L021	0.000	
17	  N7	58.532	26.289	52.951	N.2	1	L021	0.000	
18	  C8	58.523	27.601	53.007	C.2	1	L021	0.000	
19	  N9	59.355	28.229	52.068	N.pl3	1	L021	0.000	
@<TRIPOS>BOND
1 1 2 1
2 1 3 1
3 3 4 1
4 3 5 1
5 4 9 1
6 5 6 1
7 5 7 1
8 7 8 1
9 7 9 1
10 9 19 1
11 15 16 1
12 17 18 2
13 12 13 2
14 10 11 2
15 14 15 2
16 11 12 1
17 10 15 1
18 13 14 1
19 13 19 1
20 18 19 1
21 14 17 1
@<TRIPOS>SUBSTRUCTURE
1	L021	1	GROUP	1 Z	L02
