# created with PyMOL 2.5.2
@<TRIPOS>MOLECULE
L01
31 33 1                 
SMALL
USER_CHARGES
@<TRIPOS>ATOM
1	  PA	3.332	-6.085	-25.382	P.3	1	L011	0.000	
2	  PB	5.552	-5.549	-23.562	P.3	1	L011	0.000	
3	  PG	8.367	-4.494	-22.313	P.3	1	L011	0.000	
4	 C5'	4.106	-8.654	-25.878	C.3	1	L011	0.000	
5	 O5'	3.791	-7.321	-26.314	O.3	1	L011	0.000	
6	 C4'	4.344	-9.518	-27.121	C.3	1	L011	0.000	
7	 O4'	5.518	-9.074	-27.817	O.3	1	L011	0.000	
8	 C3'	4.682	-10.949	-26.858	C.3	1	L011	0.000	
9	 O3'	3.518	-11.689	-26.622	O.3	1	L011	0.000	
10	 C2'	5.467	-11.423	-28.062	C.3	1	L011	0.000	
11	 O2'	4.688	-12.012	-29.098	O.3	1	L011	0.000	
12	 C1'	6.017	-10.135	-28.622	C.3	1	L011	0.000	
13	  N1	10.577	-10.995	-30.917	N.2	1	L011	0.000	
14	 O1A	2.661	-6.609	-24.158	O.co2	1	L011	0.000	
15	 O1B	4.454	-5.171	-22.589	O.co2	1	L011	0.000	
16	 O1G	9.669	-3.963	-22.773	O.co2	1	L011	0.000	
17	  C2	9.324	-11.125	-31.430	C.2	1	L011	0.000	
18	 O2A	2.623	-5.093	-26.227	O.co2	1	L011	0.000	
19	 O2B	6.680	-4.555	-23.655	 O	1	L011	0.000	
20	 O2G	7.736	-3.494	-21.220	O.co2	1	L011	0.000	
21	  N3	8.213	-10.857	-30.708	N.2	1	L011	0.000	
22	 O3A	4.783	-5.439	-25.013	O.3	1	L011	0.000	
23	 O3B	6.099	-6.935	-23.358	O.co2	1	L011	0.000	
24	 O3G	8.583	-5.945	-21.651	O.co2	1	L011	0.000	
25	  C4	8.338	-10.473	-29.408	C.2	1	L011	0.000	
26	  C5	9.659	-10.333	-28.777	C.2	1	L011	0.000	
27	  C6	10.831	-10.629	-29.630	C.2	1	L011	0.000	
28	  N6	12.086	-10.534	-29.114	N.pl3	1	L011	0.000	
29	  N7	9.472	-9.931	-27.493	N.2	1	L011	0.000	
30	  C8	8.144	-9.835	-27.313	C.2	1	L011	0.000	
31	  N9	7.483	-10.161	-28.446	N.2	1	L011	0.000	
@<TRIPOS>BOND
1 1 5 1
2 1 14 1
3 1 18 2
4 1 22 1
5 2 15 1
6 2 19 1
7 2 22 1
8 2 23 2
9 3 16 1
10 3 24 2
11 4 5 1
12 4 6 1
13 6 7 1
14 6 8 1
15 7 12 1
16 8 9 1
17 8 10 1
18 10 11 1
19 10 12 1
20 12 31 1
21 13 17 ar
22 13 27 ar
23 17 21 ar
24 21 25 ar
25 25 26 ar
26 25 31 ar
27 26 27 ar
28 26 29 ar
29 27 28 1
30 29 30 ar
31 30 31 ar
32 3 19 1
33 3 20 1
@<TRIPOS>SUBSTRUCTURE
1	L011	1	GROUP	1 Y	L01
