# created with PyMOL 2.5.2
@<TRIPOS>MOLECULE
3pnl_prod
35 36 1                 
SMALL
USER_CHARGES
@<TRIPOS>ATOM
1	  PA	3.332	-6.085	-25.382	P.3	1	L011	0.000	
2	  PB	5.552	-5.549	-23.562	P.3	1	L011	0.000	
3	  PG	8.367	-4.494	-22.313	 P	1	L011	0.000	
4	  PG	8.367	-4.494	-22.313	P.3	1	L011	0.000	
5	 C5'	4.106	-8.654	-25.878	C.3	1	L011	0.000	
6	 O5'	3.791	-7.321	-26.314	O.3	1	L011	0.000	
7	 C4'	4.344	-9.518	-27.121	C.3	1	L011	0.000	
8	 O4'	5.518	-9.074	-27.817	O.3	1	L011	0.000	
9	 C3'	4.682	-10.949	-26.858	C.3	1	L011	0.000	
10	 O3'	3.518	-11.689	-26.622	O.3	1	L011	0.000	
11	 C2'	5.467	-11.423	-28.062	C.3	1	L011	0.000	
12	 O2'	4.688	-12.012	-29.098	O.3	1	L011	0.000	
13	 C1'	6.017	-10.135	-28.622	C.3	1	L011	0.000	
14	  N1	10.577	-10.995	-30.917	N.2	1	L011	0.000	
15	 O1A	2.661	-6.609	-24.158	O.co2	1	L011	0.000	
16	 O1B	4.454	-5.171	-22.589	O.co2	1	L011	0.000	
17	 O1G	9.669	-3.963	-22.773	O.2	1	L011	0.000	
18	 O1G	9.669	-3.963	-22.773	O.co2	1	L011	0.000	
19	  C2	9.324	-11.125	-31.430	C.2	1	L011	0.000	
20	 O2A	2.623	-5.093	-26.227	O.co2	1	L011	0.000	
21	 O2B	6.680	-4.555	-23.655	 O	1	L011	0.000	
22	 O2G	7.736	-3.494	-21.220	O.3	1	L011	0.000	
23	 O2G	7.736	-3.494	-21.220	O.3	1	L011	0.000	
24	  N3	8.213	-10.857	-30.708	N.2	1	L011	0.000	
25	 O3A	4.783	-5.439	-25.013	O.3	1	L011	0.000	
26	 O3B	6.099	-6.935	-23.358	O.co2	1	L011	0.000	
27	 O3G	8.583	-5.945	-21.651	O.2	1	L011	0.000	
28	 O3G	8.583	-5.945	-21.651	O.co2	1	L011	0.000	
29	  C4	8.338	-10.473	-29.408	C.2	1	L011	0.000	
30	  C5	9.659	-10.333	-28.777	C.2	1	L011	0.000	
31	  C6	10.831	-10.629	-29.630	C.2	1	L011	0.000	
32	  N6	12.086	-10.534	-29.114	N.pl3	1	L011	0.000	
33	  N7	9.472	-9.931	-27.493	N.2	1	L011	0.000	
34	  C8	8.144	-9.835	-27.313	C.2	1	L011	0.000	
35	  N9	7.483	-10.161	-28.446	N.2	1	L011	0.000	
@<TRIPOS>BOND
1 1 6 1
2 1 15 1
3 1 20 2
4 1 25 1
5 2 16 1
6 2 21 1
7 2 25 1
8 2 26 2
9 3 17 2
10 3 22 1
11 3 27 2
12 4 18 1
13 4 21 1
14 4 23 1
15 4 28 2
16 5 6 1
17 5 7 1
18 7 8 1
19 7 9 1
20 8 13 1
21 9 10 1
22 9 11 1
23 11 12 1
24 11 13 1
25 13 35 1
26 14 19 ar
27 14 31 ar
28 19 24 ar
29 24 29 ar
30 29 30 ar
31 29 35 ar
32 30 31 ar
33 30 33 ar
34 31 32 1
35 33 34 ar
36 34 35 ar
@<TRIPOS>SUBSTRUCTURE
1	L011	1	GROUP	1 Y	L01
