# created with PyMOL 2.5.2
@<TRIPOS>MOLECULE
production
8 7 1                   
SMALL
USER_CHARGES
@<TRIPOS>ATOM
1	  C1	9.720	-0.068	-18.019	C.3	1	L021	0.000	
2	  O1	9.953	1.130	-18.751	O.3	1	L021	0.000	
3	  C2	8.278	-0.538	-18.300	C.2	1	L021	0.000	
4	  O2	7.373	0.400	-17.797	O.2	1	L021	0.000	
5	  C3	7.966	-0.846	-19.789	C.3	1	L021	0.000	
6	  O3	8.804	-1.934	-20.221	O.3	1	L021	0.000	
7	 H01	9.857	1.886	-18.167	 H	1	L021	0.000	
8	 H02	8.963	-1.861	-21.165	 H	1	L021	0.000	
@<TRIPOS>BOND
1 1 2 1
2 1 3 1
3 2 7 1
4 3 5 1
5 5 6 1
6 6 8 1
7 3 4 2
@<TRIPOS>SUBSTRUCTURE
1	L021	1	GROUP	1 Z	L02
