# created with PyMOL 2.5.2
@<TRIPOS>MOLECULE
production
23 22 1                 
SMALL
USER_CHARGES
@<TRIPOS>ATOM
1	  C1	17.406	-31.136	-30.039	C.3	1	L011	0.000	
2	  N1	17.241	-33.320	-26.730	N.pl3	1	L011	0.000	
3	  O1	17.201	-30.745	-27.071	O.2	1	L011	0.000	
4	  C2	17.375	-32.326	-29.126	C.3	1	L011	0.000	
5	  N2	18.672	-32.194	-31.910	N.4	1	L011	0.000	
6	  C3	17.272	-32.130	-27.642	C.2	1	L011	0.000	
7	  C4	17.139	-33.125	-25.246	C.3	1	L011	0.000	
8	  O4	17.468	-28.756	-31.864	O.2	1	L011	0.000	
9	  O5	17.642	-30.336	-33.919	O.co2	1	L011	0.000	
10	  C7	17.508	-31.331	-31.523	C.3	1	L011	0.000	
11	  C8	17.539	-30.141	-32.435	C.2	1	L011	0.000	
12	 H01	18.348	-30.650	-29.785	 H	1	L011	0.000	
13	 H02	16.489	-30.575	-29.857	 H	1	L011	0.000	
14	 H03	17.289	-34.253	-27.114	 H	1	L011	0.000	
15	 H04	18.364	-32.764	-29.253	 H	1	L011	0.000	
16	 H05	16.518	-32.929	-29.424	 H	1	L011	0.000	
17	 H06	18.332	-33.084	-32.248	 H	1	L011	0.000	
18	 H07	19.204	-31.738	-32.638	 H	1	L011	0.000	
19	 H08	19.263	-32.345	-31.104	 H	1	L011	0.000	
20	 H09	16.589	-32.207	-25.038	 H	1	L011	0.000	
21	 H10	16.614	-33.972	-24.803	 H	1	L011	0.000	
22	 H11	18.139	-33.053	-24.819	 H	1	L011	0.000	
23	 H13	16.536	-31.795	-31.686	 H	1	L011	0.000	
@<TRIPOS>BOND
1 1 4 1
2 1 10 1
3 1 12 1
4 1 13 1
5 2 6 1
6 2 7 1
7 2 14 1
8 4 6 1
9 4 15 1
10 4 16 1
11 5 10 1
12 5 17 1
13 5 18 1
14 5 19 1
15 7 20 1
16 7 21 1
17 7 22 1
18 9 11 1
19 10 11 1
20 10 23 1
21 3 6 2
22 8 11 2
@<TRIPOS>SUBSTRUCTURE
1	L011	1	GROUP	1 Y	L01
