# created with PyMOL 2.4.0
@<TRIPOS>MOLECULE
production
43 45 1                 
SMALL
USER_CHARGES
@<TRIPOS>ATOM
1	  P1	50.573	54.168	96.359	P.3	1	L011	0.000	
2	  P2	50.448	56.949	95.423	P.3	1	L011	0.000	
3	  P3	49.489	58.534	97.700	P.3	1	L011	0.000	
4	  C1	53.178	54.214	96.399	C.3	1	L011	0.000	
5	  N1	55.124	46.790	98.941	N.2	1	L011	0.000	
6	  O1	51.971	53.447	96.186	O.3	1	L011	0.000	
7	  C2	54.342	53.383	95.913	C.3	1	L011	0.000	
8	  N2	55.765	48.611	97.503	N.2	1	L011	0.000	
9	  O2	54.599	52.323	96.810	O.3	1	L011	0.000	
10	  C3	54.004	52.730	94.582	C.3	1	L011	0.000	
11	  N3	53.018	46.402	99.766	N.pl3	1	L011	0.000	
12	  O3	55.113	52.840	93.686	O.3	1	L011	0.000	
13	  C4	53.708	51.261	94.870	C.3	1	L011	0.000	
14	  N4	52.261	48.999	98.110	N.2	1	L011	0.000	
15	  O4	54.144	50.422	93.811	O.3	1	L011	0.000	
16	  C5	54.524	51.054	96.110	C.3	1	L011	0.000	
17	  N5	53.885	50.052	96.964	N.2	1	L011	0.000	
18	  O5	50.224	54.277	97.787	O.co2	1	L011	0.000	
19	  C6	55.991	47.514	98.216	C.2	1	L011	0.000	
20	  O6	50.542	57.675	96.853	O.3	1	L011	0.000	
21	  C7	54.482	48.974	97.563	C.2	1	L011	0.000	
22	  O7	50.306	59.364	98.701	O.co2	1	L011	0.000	
23	  C8	53.462	48.327	98.275	C.2	1	L011	0.000	
24	  O8	49.586	53.611	95.402	O.co2	1	L011	0.000	
25	  C9	53.850	47.194	98.983	C.2	1	L011	0.000	
26	  O9	51.357	57.736	94.554	O.co2	1	L011	0.000	
27	 C10	52.575	49.998	97.329	C.2	1	L011	0.000	
28	 O10	48.678	59.351	96.745	O.co2	1	L011	0.000	
29	 O11	51.151	55.561	95.804	O.3	1	L011	0.000	
30	 O12	49.035	56.740	95.030	O.co2	1	L011	0.000	
31	 O13	48.594	57.526	98.465	O.co2	1	L011	0.000	
32	  H1	53.295	54.429	97.441	 H	1	L011	0.000	
33	  H2	53.130	55.130	95.848	 H	1	L011	0.000	
34	  H3	55.207	54.003	95.813	 H	1	L011	0.000	
35	  H4	53.146	53.200	94.150	 H	1	L011	0.000	
36	  H5	55.922	52.602	94.145	 H	1	L011	0.000	
37	  H6	52.667	51.097	95.051	 H	1	L011	0.000	
38	  H7	53.414	50.260	93.209	 H	1	L011	0.000	
39	  H8	55.507	50.725	95.849	 H	1	L011	0.000	
40	  H9	56.973	47.170	98.212	 H	1	L011	0.000	
41	 H10	52.079	46.655	99.895	 H	1	L011	0.000	
42	 H11	53.369	45.591	100.190	 H	1	L011	0.000	
43	 H12	51.875	50.698	97.009	 H	1	L011	0.000	
@<TRIPOS>BOND
1 1 18 1
2 1 24 2
3 1 29 1
4 2 20 1
5 2 26 1
6 2 30 2
7 3 22 1
8 3 28 1
9 3 31 2
10 4 6 1
11 4 7 1
12 4 32 1
13 4 33 1
14 5 25 ar
15 1 6 1
16 7 9 1
17 7 10 1
18 7 34 1
19 8 19 ar
20 9 16 1
21 10 12 1
22 10 35 1
23 11 41 1
24 11 42 1
25 12 36 1
26 10 13 1
27 13 15 1
28 13 37 1
29 14 27 ar
30 15 38 1
31 13 16 1
32 16 17 1
33 16 39 1
34 17 21 ar
35 17 27 ar
36 5 19 ar
37 19 40 1
38 3 20 1
39 8 21 ar
40 21 23 ar
41 14 23 ar
42 11 25 1
43 23 25 ar
44 27 43 1
45 2 29 1
@<TRIPOS>SUBSTRUCTURE
1	L011	1	GROUP	1 Y	L01
