# created with PyMOL 2.5.2
@<TRIPOS>MOLECULE
production
29 30 1                 
SMALL
USER_CHARGES
@<TRIPOS>ATOM
1	  C1	47.852	66.760	100.159	C.2	1	L021	0.000	
2	  N1	47.786	65.528	99.720	N.pl3	1	L021	0.000	
3	  O1	48.958	67.306	100.264	O.2	1	L021	0.000	
4	  C2	45.513	66.990	100.420	C.2	1	L021	0.000	
5	  N2	46.681	67.487	100.517	N.2	1	L021	0.000	
6	  O2	51.254	65.781	96.914	O.3	1	L021	0.000	
7	  C3	45.439	65.593	99.903	C.2	1	L021	0.000	
8	  N3	44.383	67.702	100.774	N.pl3	1	L021	0.000	
9	  O3	49.231	64.023	98.591	O.3	1	L021	0.000	
10	  C4	46.601	64.913	99.600	C.2	1	L021	0.000	
11	  O4	48.447	61.932	97.062	O.3	1	L021	0.000	
12	  C5	49.043	65.364	98.952	C.3	1	L021	0.000	
13	  C6	48.961	66.109	97.611	C.3	1	L021	0.000	
14	  C7	49.910	65.329	96.741	C.3	1	L021	0.000	
15	  C8	49.746	63.892	97.246	C.3	1	L021	0.000	
16	  C9	48.776	63.137	96.383	C.3	1	L021	0.000	
17	  H1	51.824	65.195	96.412	 H	1	L021	0.000	
18	  H2	44.480	65.115	99.766	 H	1	L021	0.000	
19	  H3	44.469	68.646	101.122	 H	1	L021	0.000	
20	  H4	43.471	67.278	100.685	 H	1	L021	0.000	
21	  H5	46.556	63.887	99.267	 H	1	L021	0.000	
22	  H6	48.052	62.172	97.903	 H	1	L021	0.000	
23	  H7	49.843	65.740	99.590	 H	1	L021	0.000	
24	  H8	49.285	67.144	97.716	 H	1	L021	0.000	
25	  H9	47.948	66.084	97.209	 H	1	L021	0.000	
26	 H10	49.700	65.436	95.677	 H	1	L021	0.000	
27	 H11	50.685	63.340	97.219	 H	1	L021	0.000	
28	 H12	47.877	63.733	96.225	 H	1	L021	0.000	
29	 H13	49.234	62.909	95.421	 H	1	L021	0.000	
@<TRIPOS>BOND
1 1 2 1
2 1 3 2
3 1 5 1
4 2 10 1
5 2 12 1
6 4 7 1
7 4 8 1
8 6 14 1
9 6 17 1
10 7 18 1
11 8 19 1
12 8 20 1
13 9 12 1
14 9 15 1
15 10 21 1
16 11 16 1
17 11 22 1
18 12 13 1
19 12 23 1
20 13 14 1
21 13 24 1
22 13 25 1
23 14 15 1
24 14 26 1
25 15 16 1
26 15 27 1
27 16 28 1
28 16 29 1
29 4 5 2
30 7 10 2
@<TRIPOS>SUBSTRUCTURE
1	L021	1	GROUP	1 Z	L02
