# created with PyMOL 2.5.2
@<TRIPOS>MOLECULE
production
29 30 1                 
SMALL
USER_CHARGES
@<TRIPOS>ATOM
1	  C1	47.852	66.760	100.159	C.2	1	L021	0.000	
2	  N1	47.786	65.528	99.720	N.pl3	1	L021	0.000	
3	  O1	48.958	67.306	100.264	O.2	1	L021	0.000	
4	  C2	45.513	66.990	100.420	C.2	1	L021	0.000	
5	  N2	46.681	67.487	100.517	N.2	1	L021	0.000	
6	  O2	51.254	65.781	96.914	O.3	1	L021	0.000	
7	  C3	45.439	65.593	99.903	C.2	1	L021	0.000	
8	  N3	44.383	67.702	100.774	N.pl3	1	L021	0.000	
9	  O3	49.231	64.023	98.591	O.3	1	L021	0.000	
10	  C4	46.601	64.913	99.600	C.2	1	L021	0.000	
11	  O4	48.447	61.932	97.062	O.3	1	L021	0.000	
12	  C5	49.043	65.364	98.952	C.3	1	L021	0.000	
13	  C6	48.961	66.109	97.611	C.3	1	L021	0.000	
14	  C7	49.910	65.329	96.741	C.3	1	L021	0.000	
15	  C8	49.746	63.892	97.246	C.3	1	L021	0.000	
16	  C9	48.776	63.137	96.383	C.3	1	L021	0.000	
17	  H1	51.759	65.598	96.117	 H	1	L021	0.000	
18	  H2	44.516	65.133	99.771	 H	1	L021	0.000	
19	  H3	43.497	67.293	100.676	 H	1	L021	0.000	
20	  H4	44.466	68.614	101.122	 H	1	L021	0.000	
21	  H5	46.557	63.925	99.279	 H	1	L021	0.000	
22	  H6	48.544	61.190	96.462	 H	1	L021	0.000	
23	  H7	49.867	65.720	99.534	 H	1	L021	0.000	
24	  H8	49.279	67.126	97.715	 H	1	L021	0.000	
25	  H9	47.967	66.084	97.217	 H	1	L021	0.000	
26	 H10	49.637	65.406	95.709	 H	1	L021	0.000	
27	 H11	50.689	63.386	97.252	 H	1	L021	0.000	
28	 H12	47.893	63.721	96.228	 H	1	L021	0.000	
29	 H13	49.226	62.913	95.438	 H	1	L021	0.000	
@<TRIPOS>BOND
1 1 3 2
2 4 8 1
3 6 17 1
4 7 18 1
5 8 19 1
6 8 20 1
7 9 15 1
8 10 21 1
9 11 22 1
10 2 12 1
11 9 12 1
12 12 13 1
13 12 23 1
14 13 24 1
15 13 25 1
16 6 14 1
17 13 14 1
18 14 26 1
19 14 15 1
20 15 16 1
21 15 27 1
22 11 16 1
23 16 28 1
24 16 29 1
25 4 5 2
26 7 10 2
27 4 7 1
28 1 5 1
29 1 2 1
30 2 10 1
@<TRIPOS>SUBSTRUCTURE
1	L021	1	GROUP	1 Z	L02
