# created with PyMOL 2.4.0
@<TRIPOS>MOLECULE
production
30 32 1                 
SMALL
USER_CHARGES
@<TRIPOS>ATOM
1	   N	16.201	25.622	-28.065	N.3	1	SAM1	0.000	
2	  CA	15.554	25.780	-26.755	C.3	1	SAM1	0.000	
3	   C	16.087	27.041	-26.070	C.2	1	SAM1	0.000	
4	   O	17.200	27.462	-26.449	O.co2	1	SAM1	0.000	
5	  CB	15.884	24.544	-25.915	C.3	1	SAM1	0.000	
6	  CG	15.028	24.466	-24.652	C.3	1	SAM1	0.000	
7	  SD	15.558	23.127	-23.524	S.3	1	SAM1	0.000	
8	  CE	15.870	23.518	-21.988	C.3	1	SAM1	0.000	
9	 C5'	15.459	21.615	-24.552	C.3	1	SAM1	0.000	
10	 C4'	14.199	21.484	-25.413	C.3	1	SAM1	0.000	
11	 O4'	14.166	20.141	-25.926	O.3	1	SAM1	0.000	
12	 C3'	12.913	21.670	-24.601	C.3	1	SAM1	0.000	
13	 O3'	12.041	22.576	-25.284	O.3	1	SAM1	0.000	
14	 C2'	12.305	20.267	-24.576	C.3	1	SAM1	0.000	
15	 O2'	10.879	20.363	-24.607	O.3	1	SAM1	0.000	
16	 C1'	12.782	19.766	-25.937	C.3	1	SAM1	0.000	
17	 OXT	15.376	27.567	-25.185	O.co2	1	SAM1	0.000	
18	  N1	11.649	15.921	-29.141	N.2	1	SAM1	0.000	
19	  C2	11.609	17.223	-29.356	C.2	1	SAM1	0.000	
20	  N3	11.897	18.090	-28.402	N.2	1	SAM1	0.000	
21	  C4	12.238	17.669	-27.176	C.2	1	SAM1	0.000	
22	  C5	12.283	16.309	-26.910	C.2	1	SAM1	0.000	
23	  C6	11.983	15.427	-27.941	C.2	1	SAM1	0.000	
24	  N6	12.098	14.113	-27.773	N.pl3	1	SAM1	0.000	
25	  N7	12.674	16.169	-25.646	N.2	1	SAM1	0.000	
26	  C8	12.878	17.383	-25.140	C.2	1	SAM1	0.000	
27	  N9	12.620	18.301	-26.071	N.2	1	SAM1	0.000	
28	 HE1	14.860	23.283	-21.651	 H	1	SAM1	0.000	
29	 HE2	16.587	22.898	-21.447	 H	1	SAM1	0.000	
30	 HE3	16.081	24.570	-21.796	 H	1	SAM1	0.000	
@<TRIPOS>BOND
1 1 2 1
2 2 3 1
3 2 5 1
4 3 4 ar
5 3 17 ar
6 5 6 1
7 6 7 1
8 7 8 1
9 7 9 1
10 8 28 1
11 8 29 1
12 8 30 1
13 9 10 1
14 10 11 1
15 10 12 1
16 11 16 1
17 12 13 1
18 12 14 1
19 14 15 1
20 14 16 1
21 16 27 1
22 18 19 ar
23 18 23 ar
24 19 20 ar
25 20 21 ar
26 21 22 ar
27 21 27 ar
28 22 23 ar
29 22 25 ar
30 23 24 1
31 25 26 ar
32 26 27 ar
@<TRIPOS>SUBSTRUCTURE
1	SAM1	1	GROUP	1 Y	SAM
