# created with PyMOL 2.4.0
@<TRIPOS>MOLECULE
production
25 26 1                 
SMALL
USER_CHARGES
@<TRIPOS>ATOM
1	 C1P	19.602	25.614	-15.669	C.2	1	L021	0.000	
2	 C1B	17.778	23.869	-15.691	C.3	1	L021	0.000	
3	 C1F	19.986	26.871	-13.655	C.2	1	L021	0.000	
4	 C1G	19.295	25.915	-14.330	C.2	1	L021	0.000	
5	 C1H	19.208	24.354	-17.665	C.2	1	L021	0.000	
6	 C1I	20.951	26.019	-17.653	C.2	1	L021	0.000	
7	 C1K	22.463	28.096	-16.219	C.2	1	L021	0.000	
8	 C1L	18.890	24.626	-16.371	C.2	1	L021	0.000	
9	 C1M	20.234	25.045	-18.314	C.2	1	L021	0.000	
10	 C1N	21.020	27.591	-14.253	C.2	1	L021	0.000	
11	 C1O	21.378	27.342	-15.581	C.2	1	L021	0.000	
12	 C1Q	20.643	26.316	-16.321	C.2	1	L021	0.000	
13	 O1C	22.195	29.246	-16.869	O.co2	1	L021	0.000	
14	 O1D	23.605	27.683	-16.162	O.co2	1	L021	0.000	
15	 O1E	21.683	28.536	-13.542	O.3	1	L021	0.000	
16	 O1J	20.530	24.754	-19.608	O.3	1	L021	0.000	
17	 H1B	18.185	22.978	-15.213	 H	1	L021	0.000	
18	 H1E	22.382	28.988	-14.021	 H	1	L021	0.000	
19	 H1F	19.723	27.083	-12.629	 H	1	L021	0.000	
20	 H1G	18.502	25.380	-13.831	 H	1	L021	0.000	
21	 H1H	18.657	23.594	-18.201	 H	1	L021	0.000	
22	 H1I	21.745	26.551	-18.159	 H	1	L021	0.000	
23	 H1J	21.247	25.268	-19.986	 H	1	L021	0.000	
24	H1BA	17.314	24.505	-14.938	 H	1	L021	0.000	
25	H1BB	17.033	23.577	-16.431	 H	1	L021	0.000	
@<TRIPOS>BOND
1 1 4 ar
2 1 8 ar
3 1 12 ar
4 2 8 1
5 2 17 1
6 2 24 1
7 2 25 1
8 3 4 ar
9 3 10 ar
10 3 19 1
11 4 20 1
12 5 8 ar
13 5 9 ar
14 5 21 1
15 6 9 ar
16 6 12 ar
17 6 22 1
18 7 11 1
19 7 13 ar
20 7 14 ar
21 9 16 1
22 10 11 ar
23 10 15 1
24 11 12 ar
25 15 18 1
26 16 23 1
@<TRIPOS>SUBSTRUCTURE
1	L021	1	GROUP	1 Z	L02
